version 2
run General-5-20150902-21:12:22-5569
attr C 1e3
attr D fix0.01
attr F spr
attr R lru_repr
attr a 1
attr brates 0.3_0.7_1.5_2.5_3.5
attr configname General
attr ctlg 1e5
attr datetime 20150902-21:12:22
attr experiment General
attr inifile omnetpp.ini
attr iterationvars "$net=abilene_nodelay, $rep=0, $lambda=100, $a=1, $ctlg=1e5, $brates=0.3_0.7_1.5_2.5_3.5, $F=spr, $ttl=1000, $D=fix0.01, $R=lru_repr, $proactiveprob=1, $C=1e3, $window=60, $variance=0.05, $mytime=180000"
attr iterationvars2 "$net=abilene_nodelay, $rep=0, $lambda=100, $a=1, $ctlg=1e5, $brates=0.3_0.7_1.5_2.5_3.5, $F=spr, $ttl=1000, $D=fix0.01, $R=lru_repr, $proactiveprob=1, $C=1e3, $window=60, $variance=0.05, $mytime=180000, $repetition=0"
attr lambda 100
attr measurement "$net=abilene_nodelay, $rep=0, $lambda=100, $a=1, $ctlg=1e5, $brates=0.3_0.7_1.5_2.5_3.5, $F=spr, $ttl=1000, $D=fix0.01, $R=lru_repr, $proactiveprob=1, $C=1e3, $window=60, $variance=0.05, $mytime=180000"
attr mytime 180000
attr net abilene_nodelay
attr network networks.${net=abilene_nodelay}_network
attr proactiveprob 1
attr processid 5569
attr rep 0
attr repetition 0
attr replication #0
attr resultdir results
attr runnumber 5
attr seedset 0
attr ttl 1000
attr variance 0.05
attr window 60

scalar . 	C 	1e3
scalar . 	a 	1
scalar . 	ctlg 	1e5
scalar . 	lambda 	100
scalar . 	mytime 	180000
scalar . 	proactiveprob 	1
scalar . 	rep 	0
scalar . 	ttl 	1000
scalar . 	variance 	0.05
scalar . 	window 	60
scalar abilene_nodelay_network.content_distribution 	repo-0 	5
scalar abilene_nodelay_network.content_distribution 	repo-1 	8
scalar abilene_nodelay_network.content_distribution 	repo-2 	9
scalar abilene_nodelay_network.content_distribution 	repo-3 	0
scalar abilene_nodelay_network.content_distribution 	repo-4 	1
scalar abilene_nodelay_network.content_distribution 	repo-5 	7
scalar abilene_nodelay_network.content_distribution 	repo-6 	6
scalar abilene_nodelay_network.content_distribution 	repo-7 	2
scalar abilene_nodelay_network.content_distribution 	repo-8 	4
scalar abilene_nodelay_network.content_distribution 	repo-9 	10
scalar abilene_nodelay_network.content_distribution 	repo-10 	3
scalar abilene_nodelay_network.content_distribution 	client-0 	10
scalar abilene_nodelay_network.content_distribution 	client-1 	9
scalar abilene_nodelay_network.content_distribution 	client-2 	8
scalar abilene_nodelay_network.content_distribution 	client-3 	7
scalar abilene_nodelay_network.content_distribution 	client-4 	3
scalar abilene_nodelay_network.content_distribution 	client-5 	6
scalar abilene_nodelay_network.content_distribution 	client-6 	5
scalar abilene_nodelay_network.content_distribution 	client-7 	1
scalar abilene_nodelay_network.content_distribution 	client-8 	4
scalar abilene_nodelay_network.content_distribution 	client-9 	0
scalar abilene_nodelay_network.content_distribution 	client-10 	2
scalar abilene_nodelay_network.content_distribution 	repo-0_card 	9071
scalar abilene_nodelay_network.content_distribution 	repo-0_price 	0
scalar abilene_nodelay_network.content_distribution 	repo-1_card 	8986
scalar abilene_nodelay_network.content_distribution 	repo-1_price 	0
scalar abilene_nodelay_network.content_distribution 	repo-2_card 	9050
scalar abilene_nodelay_network.content_distribution 	repo-2_price 	0
scalar abilene_nodelay_network.content_distribution 	repo-3_card 	8986
scalar abilene_nodelay_network.content_distribution 	repo-3_price 	0
scalar abilene_nodelay_network.content_distribution 	repo-4_card 	9064
scalar abilene_nodelay_network.content_distribution 	repo-4_price 	0
scalar abilene_nodelay_network.content_distribution 	repo-5_card 	9170
scalar abilene_nodelay_network.content_distribution 	repo-5_price 	0
scalar abilene_nodelay_network.content_distribution 	repo-6_card 	9151
scalar abilene_nodelay_network.content_distribution 	repo-6_price 	0
scalar abilene_nodelay_network.content_distribution 	repo-7_card 	9112
scalar abilene_nodelay_network.content_distribution 	repo-7_price 	0
scalar abilene_nodelay_network.content_distribution 	repo-8_card 	9132
scalar abilene_nodelay_network.content_distribution 	repo-8_price 	0
scalar abilene_nodelay_network.content_distribution 	repo-9_card 	9101
scalar abilene_nodelay_network.content_distribution 	repo-9_price 	0
scalar abilene_nodelay_network.content_distribution 	repo-10_card 	9177
scalar abilene_nodelay_network.content_distribution 	repo-10_price 	0
scalar abilene_nodelay_network.statistics 	stabilization_time 	36060
scalar abilene_nodelay_network.statistics 	p_hit 	0.31247544472495
scalar abilene_nodelay_network.statistics 	interests 	39743589.545455
scalar abilene_nodelay_network.statistics 	data 	18184315.272727
scalar abilene_nodelay_network.statistics 	hdistance 	1.065294144748
scalar abilene_nodelay_network.statistics 	avg_time 	0
scalar abilene_nodelay_network.statistics 	downloads 	197980075
scalar abilene_nodelay_network.statistics 	total_cost 	0
scalar abilene_nodelay_network.statistics 	total_replicas 	100000
scalar abilene_nodelay_network.statistics 	"representations_downloaded 0.426616:0.0405845:0.0304876:0.0271817:0.47513:" 	0
scalar abilene_nodelay_network.statistics 	"slots_per_representation 100:233:500:833:1167:" 	0
scalar abilene_nodelay_network.statistics 	inner_hit 	0.49215009136652
scalar abilene_nodelay_network.statistics 	execution_time 	8878
scalar abilene_nodelay_network.node[0].core_layer 	interests[0] 	26590193
scalar abilene_nodelay_network.node[0].core_layer 	repo_load[0] 	8236377
scalar abilene_nodelay_network.node[0].core_layer 	data[0] 	7857020
scalar abilene_nodelay_network.node[0].core_layer 	slots_sent[face$o[1]->client[0]] 	12339907105
scalar abilene_nodelay_network.node[0].core_layer 	slots_sent[face$o[2]->node[1]] 	1593809730
scalar abilene_nodelay_network.node[0].core_layer 	slots_sent[face$o[3]->node[10]] 	432648553
scalar abilene_nodelay_network.node[0].content_store 	p_hit[0] 	0.39476193346923
scalar abilene_nodelay_network.node[0].content_store 	hits[0] 	10496796
scalar abilene_nodelay_network.node[0].content_store 	misses[0] 	16093397
scalar abilene_nodelay_network.node[0].content_store 	decision_yes[0] 	78557
scalar abilene_nodelay_network.node[0].content_store 	decision_no[0] 	16014840
scalar abilene_nodelay_network.node[0].content_store 	decision_ratio[0] 	0.0048813187172354
scalar abilene_nodelay_network.node[0].content_store 	"representation_breakdown[0] 2626:413:207:106:528:" 	0
scalar abilene_nodelay_network.node[0].proactive_component 	hdistance[0].proactive_component 	2.5949278408296
scalar abilene_nodelay_network.node[0].proactive_component 	downloads[0].proactive_component 	1991223
scalar abilene_nodelay_network.node[0].proactive_component 	avg_time[0].proactive_component 	0
scalar abilene_nodelay_network.node[1].core_layer 	interests[1] 	46250076
scalar abilene_nodelay_network.node[1].core_layer 	repo_load[1] 	9491452
scalar abilene_nodelay_network.node[1].core_layer 	data[1] 	23770004
scalar abilene_nodelay_network.node[1].core_layer 	slots_sent[face$o[1]->client[1]] 	10938408322
scalar abilene_nodelay_network.node[1].core_layer 	slots_sent[face$o[2]->node[0]] 	1912252083
scalar abilene_nodelay_network.node[1].core_layer 	slots_sent[face$o[3]->node[10]] 	1511737367
scalar abilene_nodelay_network.node[1].core_layer 	slots_sent[face$o[4]->node[2]] 	3744222475
scalar abilene_nodelay_network.node[1].content_store 	p_hit[1] 	0.28083456554752
scalar abilene_nodelay_network.node[1].content_store 	hits[1] 	12988620
scalar abilene_nodelay_network.node[1].content_store 	misses[1] 	33261456
scalar abilene_nodelay_network.node[1].content_store 	decision_yes[1] 	237693
scalar abilene_nodelay_network.node[1].content_store 	decision_no[1] 	33023763
scalar abilene_nodelay_network.node[1].content_store 	decision_ratio[1] 	0.0071461994928905
scalar abilene_nodelay_network.node[1].content_store 	"representation_breakdown[1] 2584:544:269:189:419:" 	0
scalar abilene_nodelay_network.node[1].proactive_component 	hdistance[1].proactive_component 	2.2820801046141
scalar abilene_nodelay_network.node[1].proactive_component 	downloads[1].proactive_component 	5424881
scalar abilene_nodelay_network.node[1].proactive_component 	avg_time[1].proactive_component 	0
scalar abilene_nodelay_network.node[2].core_layer 	interests[2] 	61275731
scalar abilene_nodelay_network.node[2].core_layer 	repo_load[2] 	10781550
scalar abilene_nodelay_network.node[2].core_layer 	data[2] 	35152175
scalar abilene_nodelay_network.node[2].core_layer 	slots_sent[face$o[1]->client[2]] 	10651462850
scalar abilene_nodelay_network.node[2].core_layer 	slots_sent[face$o[2]->node[1]] 	4223599974
scalar abilene_nodelay_network.node[2].core_layer 	slots_sent[face$o[3]->node[3]] 	4984567647
scalar abilene_nodelay_network.node[2].core_layer 	slots_sent[face$o[4]->node[8]] 	2035374909
scalar abilene_nodelay_network.node[2].content_store 	p_hit[2] 	0.25037654793543
scalar abilene_nodelay_network.node[2].content_store 	hits[2] 	15342006
scalar abilene_nodelay_network.node[2].content_store 	misses[2] 	45933725
scalar abilene_nodelay_network.node[2].content_store 	decision_yes[2] 	352297
scalar abilene_nodelay_network.node[2].content_store 	decision_no[2] 	45581428
scalar abilene_nodelay_network.node[2].content_store 	decision_ratio[2] 	0.0076696806104883
scalar abilene_nodelay_network.node[2].content_store 	"representation_breakdown[2] 2623:574:216:208:419:" 	0
scalar abilene_nodelay_network.node[2].proactive_component 	hdistance[2].proactive_component 	2.285852770644
scalar abilene_nodelay_network.node[2].proactive_component 	downloads[2].proactive_component 	7554200
scalar abilene_nodelay_network.node[2].proactive_component 	avg_time[2].proactive_component 	0
scalar abilene_nodelay_network.node[3].core_layer 	interests[3] 	57581638
scalar abilene_nodelay_network.node[3].core_layer 	repo_load[3] 	9412010
scalar abilene_nodelay_network.node[3].core_layer 	data[3] 	32587291
scalar abilene_nodelay_network.node[3].core_layer 	slots_sent[face$o[1]->client[3]] 	11430488662
scalar abilene_nodelay_network.node[3].core_layer 	slots_sent[face$o[2]->node[2]] 	4872999861
scalar abilene_nodelay_network.node[3].core_layer 	slots_sent[face$o[3]->node[4]] 	3079386423
scalar abilene_nodelay_network.node[3].core_layer 	slots_sent[face$o[4]->node[7]] 	2228494902
scalar abilene_nodelay_network.node[3].content_store 	p_hit[3] 	0.27061295130229
scalar abilene_nodelay_network.node[3].content_store 	hits[3] 	15582337
scalar abilene_nodelay_network.node[3].content_store 	misses[3] 	41999301
scalar abilene_nodelay_network.node[3].content_store 	decision_yes[3] 	325023
scalar abilene_nodelay_network.node[3].content_store 	decision_no[3] 	41674278
scalar abilene_nodelay_network.node[3].content_store 	decision_ratio[3] 	0.0077387716524139
scalar abilene_nodelay_network.node[3].content_store 	"representation_breakdown[3] 2553:547:224:192:439:" 	0
scalar abilene_nodelay_network.node[3].proactive_component 	hdistance[3].proactive_component 	2.2721962504367
scalar abilene_nodelay_network.node[3].proactive_component 	downloads[3].proactive_component 	7167821
scalar abilene_nodelay_network.node[3].proactive_component 	avg_time[3].proactive_component 	0
scalar abilene_nodelay_network.node[4].core_layer 	interests[4] 	35473576
scalar abilene_nodelay_network.node[4].core_layer 	repo_load[4] 	8454588
scalar abilene_nodelay_network.node[4].core_layer 	data[4] 	15031258
scalar abilene_nodelay_network.node[4].core_layer 	slots_sent[face$o[1]->client[4]] 	11997594261
scalar abilene_nodelay_network.node[4].core_layer 	slots_sent[face$o[2]->node[3]] 	2727939515
scalar abilene_nodelay_network.node[4].core_layer 	slots_sent[face$o[3]->node[5]] 	1672635334
scalar abilene_nodelay_network.node[4].content_store 	p_hit[4] 	0.33793407239236
scalar abilene_nodelay_network.node[4].content_store 	hits[4] 	11987730
scalar abilene_nodelay_network.node[4].content_store 	misses[4] 	23485846
scalar abilene_nodelay_network.node[4].content_store 	decision_yes[4] 	149390
scalar abilene_nodelay_network.node[4].content_store 	decision_no[4] 	23336456
scalar abilene_nodelay_network.node[4].content_store 	decision_ratio[4] 	0.0063608524044652
scalar abilene_nodelay_network.node[4].content_store 	"representation_breakdown[4] 2491:467:210:171:481:" 	0
scalar abilene_nodelay_network.node[4].proactive_component 	hdistance[4].proactive_component 	2.3634523326801
scalar abilene_nodelay_network.node[4].proactive_component 	downloads[4].proactive_component 	3551280
scalar abilene_nodelay_network.node[4].proactive_component 	avg_time[4].proactive_component 	0
scalar abilene_nodelay_network.node[5].core_layer 	interests[5] 	28662535
scalar abilene_nodelay_network.node[5].core_layer 	repo_load[5] 	9786041
scalar abilene_nodelay_network.node[5].core_layer 	data[5] 	9377431
scalar abilene_nodelay_network.node[5].core_layer 	slots_sent[face$o[1]->client[5]] 	10826987925
scalar abilene_nodelay_network.node[5].core_layer 	slots_sent[face$o[2]->node[4]] 	1526874487
scalar abilene_nodelay_network.node[5].core_layer 	slots_sent[face$o[3]->node[6]] 	1093072774
scalar abilene_nodelay_network.node[5].content_store 	p_hit[5] 	0.33141042828208
scalar abilene_nodelay_network.node[5].content_store 	hits[5] 	9499063
scalar abilene_nodelay_network.node[5].content_store 	misses[5] 	19163472
scalar abilene_nodelay_network.node[5].content_store 	decision_yes[5] 	94156
scalar abilene_nodelay_network.node[5].content_store 	decision_no[5] 	19069316
scalar abilene_nodelay_network.node[5].content_store 	decision_ratio[5] 	0.0049133058978039
scalar abilene_nodelay_network.node[5].content_store 	"representation_breakdown[5] 2772:384:204:128:507:" 	0
scalar abilene_nodelay_network.node[5].proactive_component 	hdistance[5].proactive_component 	2.4094046600894
scalar abilene_nodelay_network.node[5].proactive_component 	downloads[5].proactive_component 	2395791
scalar abilene_nodelay_network.node[5].proactive_component 	avg_time[5].proactive_component 	0
scalar abilene_nodelay_network.node[6].core_layer 	interests[6] 	32207201
scalar abilene_nodelay_network.node[6].core_layer 	repo_load[6] 	8459164
scalar abilene_nodelay_network.node[6].core_layer 	data[6] 	12254724
scalar abilene_nodelay_network.node[6].core_layer 	slots_sent[face$o[1]->client[6]] 	12156357544
scalar abilene_nodelay_network.node[6].core_layer 	slots_sent[face$o[2]->node[5]] 	1166356199
scalar abilene_nodelay_network.node[6].core_layer 	slots_sent[face$o[3]->node[7]] 	2343533221
scalar abilene_nodelay_network.node[6].content_store 	p_hit[6] 	0.35685538150304
scalar abilene_nodelay_network.node[6].content_store 	hits[6] 	11493313
scalar abilene_nodelay_network.node[6].content_store 	misses[6] 	20713888
scalar abilene_nodelay_network.node[6].content_store 	decision_yes[6] 	122909
scalar abilene_nodelay_network.node[6].content_store 	decision_no[6] 	20590979
scalar abilene_nodelay_network.node[6].content_store 	decision_ratio[6] 	0.0059336518571501
scalar abilene_nodelay_network.node[6].content_store 	"representation_breakdown[6] 2732:412:190:152:493:" 	0
scalar abilene_nodelay_network.node[6].proactive_component 	hdistance[6].proactive_component 	2.3302950303853
scalar abilene_nodelay_network.node[6].proactive_component 	downloads[6].proactive_component 	3056092
scalar abilene_nodelay_network.node[6].proactive_component 	avg_time[6].proactive_component 	0
scalar abilene_nodelay_network.node[7].core_layer 	interests[7] 	43673443
scalar abilene_nodelay_network.node[7].core_layer 	repo_load[7] 	9226354
scalar abilene_nodelay_network.node[7].core_layer 	data[7] 	20853759
scalar abilene_nodelay_network.node[7].core_layer 	slots_sent[face$o[1]->client[7]] 	11990082110
scalar abilene_nodelay_network.node[7].core_layer 	slots_sent[face$o[2]->node[3]] 	2002522904
scalar abilene_nodelay_network.node[7].core_layer 	slots_sent[face$o[3]->node[6]] 	2629301193
scalar abilene_nodelay_network.node[7].core_layer 	slots_sent[face$o[4]->node[8]] 	1855936167
scalar abilene_nodelay_network.node[7].content_store 	p_hit[7] 	0.31124933291841
scalar abilene_nodelay_network.node[7].content_store 	hits[7] 	13593330
scalar abilene_nodelay_network.node[7].content_store 	misses[7] 	30080113
scalar abilene_nodelay_network.node[7].content_store 	decision_yes[7] 	208720
scalar abilene_nodelay_network.node[7].content_store 	decision_no[7] 	29871393
scalar abilene_nodelay_network.node[7].content_store 	decision_ratio[7] 	0.0069388037205844
scalar abilene_nodelay_network.node[7].content_store 	"representation_breakdown[7] 2513:496:221:172:468:" 	0
scalar abilene_nodelay_network.node[7].proactive_component 	hdistance[7].proactive_component 	2.2058361364458
scalar abilene_nodelay_network.node[7].proactive_component 	downloads[7].proactive_component 	4945395
scalar abilene_nodelay_network.node[7].proactive_component 	avg_time[7].proactive_component 	0
scalar abilene_nodelay_network.node[8].core_layer 	interests[8] 	41827676
scalar abilene_nodelay_network.node[8].core_layer 	repo_load[8] 	8544721
scalar abilene_nodelay_network.node[8].core_layer 	data[8] 	19806563
scalar abilene_nodelay_network.node[8].core_layer 	slots_sent[face$o[1]->client[8]] 	11975410242
scalar abilene_nodelay_network.node[8].core_layer 	slots_sent[face$o[2]->node[2]] 	1731659718
scalar abilene_nodelay_network.node[8].core_layer 	slots_sent[face$o[3]->node[7]] 	1763918784
scalar abilene_nodelay_network.node[8].core_layer 	slots_sent[face$o[4]->node[9]] 	2349304333
scalar abilene_nodelay_network.node[8].content_store 	p_hit[8] 	0.32218839985277
scalar abilene_nodelay_network.node[8].content_store 	hits[8] 	13476392
scalar abilene_nodelay_network.node[8].content_store 	misses[8] 	28351284
scalar abilene_nodelay_network.node[8].content_store 	decision_yes[8] 	197768
scalar abilene_nodelay_network.node[8].content_store 	decision_no[8] 	28153516
scalar abilene_nodelay_network.node[8].content_store 	decision_ratio[8] 	0.0069756276294224
scalar abilene_nodelay_network.node[8].content_store 	"representation_breakdown[8] 2523:502:240:182:450:" 	0
scalar abilene_nodelay_network.node[8].proactive_component 	hdistance[8].proactive_component 	2.1657743509949
scalar abilene_nodelay_network.node[8].proactive_component 	downloads[8].proactive_component 	4955085
scalar abilene_nodelay_network.node[8].proactive_component 	avg_time[8].proactive_component 	0
scalar abilene_nodelay_network.node[9].core_layer 	interests[9] 	32296240
scalar abilene_nodelay_network.node[9].core_layer 	repo_load[9] 	8759832
scalar abilene_nodelay_network.node[9].core_layer 	data[9] 	12247741
scalar abilene_nodelay_network.node[9].core_layer 	slots_sent[face$o[1]->client[9]] 	11842369894
scalar abilene_nodelay_network.node[9].core_layer 	slots_sent[face$o[2]->node[10]] 	1391102112
scalar abilene_nodelay_network.node[9].core_layer 	slots_sent[face$o[3]->node[8]] 	2111318833
scalar abilene_nodelay_network.node[9].content_store 	p_hit[9] 	0.34953502327206
scalar abilene_nodelay_network.node[9].content_store 	hits[9] 	11288667
scalar abilene_nodelay_network.node[9].content_store 	misses[9] 	21007573
scalar abilene_nodelay_network.node[9].content_store 	decision_yes[9] 	122205
scalar abilene_nodelay_network.node[9].content_store 	decision_no[9] 	20885368
scalar abilene_nodelay_network.node[9].content_store 	decision_ratio[9] 	0.0058171879255162
scalar abilene_nodelay_network.node[9].content_store 	"representation_breakdown[9] 2761:455:223:154:467:" 	0
scalar abilene_nodelay_network.node[9].proactive_component 	hdistance[9].proactive_component 	2.2912276961886
scalar abilene_nodelay_network.node[9].proactive_component 	downloads[9].proactive_component 	3105467
scalar abilene_nodelay_network.node[9].proactive_component 	avg_time[9].proactive_component 	0
scalar abilene_nodelay_network.node[10].core_layer 	interests[10] 	31341176
scalar abilene_nodelay_network.node[10].core_layer 	repo_load[10] 	9392074
scalar abilene_nodelay_network.node[10].core_layer 	data[10] 	11089502
scalar abilene_nodelay_network.node[10].core_layer 	slots_sent[face$o[1]->client[10]] 	11445374862
scalar abilene_nodelay_network.node[10].core_layer 	slots_sent[face$o[2]->node[0]] 	459265317
scalar abilene_nodelay_network.node[10].core_layer 	slots_sent[face$o[3]->node[1]] 	1343083263
scalar abilene_nodelay_network.node[10].core_layer 	slots_sent[face$o[4]->node[9]] 	1292653715
scalar abilene_nodelay_network.node[10].content_store 	p_hit[10] 	0.34649625144889
scalar abilene_nodelay_network.node[10].content_store 	hits[10] 	10859600
scalar abilene_nodelay_network.node[10].content_store 	misses[10] 	20481576
scalar abilene_nodelay_network.node[10].content_store 	decision_yes[10] 	111033
scalar abilene_nodelay_network.node[10].content_store 	decision_no[10] 	20370543
scalar abilene_nodelay_network.node[10].content_store 	decision_ratio[10] 	0.0054211160313054
scalar abilene_nodelay_network.node[10].content_store 	"representation_breakdown[10] 2768:429:236:161:461:" 	0
scalar abilene_nodelay_network.node[10].proactive_component 	hdistance[10].proactive_component 	2.2217647855442
scalar abilene_nodelay_network.node[10].proactive_component 	downloads[10].proactive_component 	3101340
scalar abilene_nodelay_network.node[10].proactive_component 	avg_time[10].proactive_component 	0
scalar abilene_nodelay_network.client[0] 	hdistance[0].real 	1.1478881104304
scalar abilene_nodelay_network.client[0] 	downloads[0].real 	17997674
scalar abilene_nodelay_network.client[0] 	avg_time[0].real 	0
scalar abilene_nodelay_network.client[1] 	hdistance[1].real 	1.0885084160059
scalar abilene_nodelay_network.client[1] 	downloads[1].real 	17997136
scalar abilene_nodelay_network.client[1] 	avg_time[1].real 	0
scalar abilene_nodelay_network.client[2] 	hdistance[2].real 	1.0021373516102
scalar abilene_nodelay_network.client[2] 	downloads[2].real 	17996571
scalar abilene_nodelay_network.client[2] 	avg_time[2].real 	0
scalar abilene_nodelay_network.client[3] 	hdistance[3].real 	0.98184050121345
scalar abilene_nodelay_network.client[3] 	downloads[3].real 	17999836
scalar abilene_nodelay_network.client[3] 	avg_time[3].real 	0
scalar abilene_nodelay_network.client[4] 	hdistance[4].real 	1.1070418592403
scalar abilene_nodelay_network.client[4] 	downloads[4].real 	18003910
scalar abilene_nodelay_network.client[4] 	avg_time[4].real 	0
scalar abilene_nodelay_network.client[5] 	hdistance[5].real 	1.2164481777541
scalar abilene_nodelay_network.client[5] 	downloads[5].real 	17998091
scalar abilene_nodelay_network.client[5] 	avg_time[5].real 	0
scalar abilene_nodelay_network.client[6] 	hdistance[6].real 	1.1032213322372
scalar abilene_nodelay_network.client[6] 	downloads[6].real 	18002800
scalar abilene_nodelay_network.client[6] 	avg_time[6].real 	0
scalar abilene_nodelay_network.client[7] 	hdistance[7].real 	0.96920297606103
scalar abilene_nodelay_network.client[7] 	downloads[7].real 	17996674
scalar abilene_nodelay_network.client[7] 	avg_time[7].real 	0
scalar abilene_nodelay_network.client[8] 	hdistance[8].real 	0.94674293646697
scalar abilene_nodelay_network.client[8] 	downloads[8].real 	17994890
scalar abilene_nodelay_network.client[8] 	avg_time[8].real 	0
scalar abilene_nodelay_network.client[9] 	hdistance[9].real 	1.0512126196267
scalar abilene_nodelay_network.client[9] 	downloads[9].real 	17998884
scalar abilene_nodelay_network.client[9] 	avg_time[9].real 	0
scalar abilene_nodelay_network.client[10] 	hdistance[10].real 	1.1039913115817
scalar abilene_nodelay_network.client[10] 	downloads[10].real 	17993609
scalar abilene_nodelay_network.client[10] 	avg_time[10].real 	0
