version 2
run General-28-20150405-09:30:34-14546
attr D costaware0.01
attr F nrr
attr R lru
attr a 1.2
attr configname General
attr csize 1e3
attr ctlg 1e5
attr datetime 20150405-09:30:34
attr experiment General
attr inifile omnetpp.ini
attr iterationvars "$rep=5, $net=cost_scenario, $lambda=100, $a=1.2, $ctlg=1e5, $F=nrr, $ttl=10, $D=costaware0.01, $R=lru, $csize=1e3, $window=60, $variance=0.05, $mytime=1800000, $kappa=1, $priceratiovalue=100, $splits=0.5_0.25_0.25, $pricebits=0"
attr iterationvars2 "$rep=5, $net=cost_scenario, $lambda=100, $a=1.2, $ctlg=1e5, $F=nrr, $ttl=10, $D=costaware0.01, $R=lru, $csize=1e3, $window=60, $variance=0.05, $mytime=1800000, $kappa=1, $priceratiovalue=100, $splits=0.5_0.25_0.25, $pricebits=0, $repetition=0"
attr kappa 1
attr lambda 100
attr measurement "$rep=5, $net=cost_scenario, $lambda=100, $a=1.2, $ctlg=1e5, $F=nrr, $ttl=10, $D=costaware0.01, $R=lru, $csize=1e3, $window=60, $variance=0.05, $mytime=1800000, $kappa=1, $priceratiovalue=100, $splits=0.5_0.25_0.25, $pricebits=0"
attr mytime 1800000
attr net cost_scenario
attr network networks.${net=cost_scenario}_network
attr pricebits 0
attr priceratiovalue 100
attr processid 14546
attr rep 5
attr repetition 0
attr replication #0
attr resultdir results
attr runnumber 28
attr seedset 5
attr splits 0.5_0.25_0.25
attr ttl 10
attr variance 0.05
attr window 60

scalar . 	a 	1.2
scalar . 	csize 	1e3
scalar . 	ctlg 	1e5
scalar . 	kappa 	1
scalar . 	lambda 	100
scalar . 	mytime 	1800000
scalar . 	pricebits 	0
scalar . 	priceratiovalue 	100
scalar . 	rep 	5
scalar . 	ttl 	10
scalar . 	variance 	0.05
scalar . 	window 	60
scalar cost_scenario_network.content_distribution 	repo-0 	1
scalar cost_scenario_network.content_distribution 	repo-1 	2
scalar cost_scenario_network.content_distribution 	repo-2 	3
scalar cost_scenario_network.content_distribution 	client-0 	0
scalar cost_scenario_network.content_distribution 	repo-0_card 	49987
scalar cost_scenario_network.content_distribution 	repo-0_price 	0
scalar cost_scenario_network.content_distribution 	repo-1_card 	24952
scalar cost_scenario_network.content_distribution 	repo-1_price 	100
scalar cost_scenario_network.content_distribution 	repo-2_card 	25061
scalar cost_scenario_network.content_distribution 	repo-2_price 	1
scalar cost_scenario_network.statistics 	repo_popularity[0] 	0.59983091696785
scalar cost_scenario_network.statistics 	repo_popularity[1] 	0.28646290387201
scalar cost_scenario_network.statistics 	repo_popularity[2] 	0.11370617916014
scalar cost_scenario_network.statistics 	stabilization_time 	6221.2
scalar cost_scenario_network.statistics 	p_hit 	0.19999075767533
scalar cost_scenario_network.statistics 	interests 	74991955.5
scalar cost_scenario_network.statistics 	data 	29997128.75
scalar cost_scenario_network.statistics 	hdistance 	1.3333590066555
scalar cost_scenario_network.statistics 	avg_time 	0
scalar cost_scenario_network.statistics 	downloads 	179979307
scalar cost_scenario_network.statistics 	total_cost 	500763828
scalar cost_scenario_network.statistics 	total_replicas 	100000
scalar cost_scenario_network.statistics 	inner_hit 	0.33332049667243
scalar cost_scenario_network.statistics 	interests_sent 	179979307
scalar cost_scenario_network.node[0].core_layer 	interests[0] 	179979307
scalar cost_scenario_network.node[0].core_layer 	data[0] 	119988515
scalar cost_scenario_network.node[0].core_layer 	repo_int[0] 	119988515
scalar cost_scenario_network.node[0].content_store 	p_hit[0] 	0.33332049667243
scalar cost_scenario_network.node[0].content_store 	hits[0] 	59990792
scalar cost_scenario_network.node[0].content_store 	misses[0] 	119988515
scalar cost_scenario_network.node[0].content_store 	decision_yes[0] 	197445
scalar cost_scenario_network.node[0].content_store 	decision_no[0] 	119791070
scalar cost_scenario_network.node[0].content_store 	decision_ratio[0] 	0.0016455324911722
scalar cost_scenario_network.node[0].content_store 	cache_value[0] 	132.10605330167
scalar cost_scenario_network.node[0].content_store 	average_price_of_cache[0] 	75.151
scalar cost_scenario_network.node[0].content_store 	correction_factor[0] 	0.0003960396039604
scalar cost_scenario_network.node[0].content_store 	kappa[0] 	1
scalar cost_scenario_network.node[1].core_layer 	interests[1] 	107946404
scalar cost_scenario_network.node[1].core_layer 	repo_load[1] 	107946404
scalar cost_scenario_network.node[1].core_layer 	data[1] 	0
scalar cost_scenario_network.node[1].content_store 	p_hit[1] 	0
scalar cost_scenario_network.node[1].content_store 	hits[1] 	0
scalar cost_scenario_network.node[1].content_store 	misses[1] 	107946404
scalar cost_scenario_network.node[1].content_store 	decision_yes[1] 	0
scalar cost_scenario_network.node[1].content_store 	decision_no[1] 	107946404
scalar cost_scenario_network.node[1].content_store 	decision_ratio[1] 	0
scalar cost_scenario_network.node[1].content_store 	cache_value[1] 	1.5031666645433e-316
scalar cost_scenario_network.node[1].content_store 	average_price_of_cache[1] 	-nan
scalar cost_scenario_network.node[1].content_store 	correction_factor[1] 	0.0003960396039604
scalar cost_scenario_network.node[1].content_store 	kappa[1] 	1
scalar cost_scenario_network.node[2].core_layer 	interests[2] 	4936583
scalar cost_scenario_network.node[2].core_layer 	repo_load[2] 	4936583
scalar cost_scenario_network.node[2].core_layer 	data[2] 	0
scalar cost_scenario_network.node[2].content_store 	p_hit[2] 	0
scalar cost_scenario_network.node[2].content_store 	hits[2] 	0
scalar cost_scenario_network.node[2].content_store 	misses[2] 	4936583
scalar cost_scenario_network.node[2].content_store 	decision_yes[2] 	0
scalar cost_scenario_network.node[2].content_store 	decision_no[2] 	4936583
scalar cost_scenario_network.node[2].content_store 	decision_ratio[2] 	0
scalar cost_scenario_network.node[2].content_store 	cache_value[2] 	1.503325556055e-316
scalar cost_scenario_network.node[2].content_store 	average_price_of_cache[2] 	-nan
scalar cost_scenario_network.node[2].content_store 	correction_factor[2] 	0.0003960396039604
scalar cost_scenario_network.node[2].content_store 	kappa[2] 	1
scalar cost_scenario_network.node[3].core_layer 	interests[3] 	7105528
scalar cost_scenario_network.node[3].core_layer 	repo_load[3] 	7105528
scalar cost_scenario_network.node[3].core_layer 	data[3] 	0
scalar cost_scenario_network.node[3].content_store 	p_hit[3] 	0
scalar cost_scenario_network.node[3].content_store 	hits[3] 	0
scalar cost_scenario_network.node[3].content_store 	misses[3] 	7105528
scalar cost_scenario_network.node[3].content_store 	decision_yes[3] 	0
scalar cost_scenario_network.node[3].content_store 	decision_no[3] 	7105528
scalar cost_scenario_network.node[3].content_store 	decision_ratio[3] 	0
scalar cost_scenario_network.node[3].content_store 	cache_value[3] 	1.5034844475667e-316
scalar cost_scenario_network.node[3].content_store 	average_price_of_cache[3] 	-nan
scalar cost_scenario_network.node[3].content_store 	correction_factor[3] 	0.0003960396039604
scalar cost_scenario_network.node[3].content_store 	kappa[3] 	1
scalar cost_scenario_network.client[0] 	hdistance[0] 	1.3333590066555
scalar cost_scenario_network.client[0] 	downloads[0] 	179979307
scalar cost_scenario_network.client[0] 	avg_time[0] 	0
scalar cost_scenario_network.client[0] 	interests_sent[0] 	179979307
