version 2
run General-774-20140508-15:28:41-20299
attr D costprobprodcorr0.01
attr F nrr
attr R lru
attr a 1.2
attr configname General
attr csize 1e3
attr ctlg 1e5
attr datetime 20140508-15:28:41
attr experiment General
attr inifile omnetpp.ini
attr iterationvars "$net=one_cache_scenario_3_links, $rep=7, $priceratiovalue=10, $weights=0.333_0.333_0.334, $a=1.2, $ctlg=1e5, $F=nrr, $ttl=1000, $D=costprobprodcorr0.01, $xi=1.25, $R=lru, $csize=1e3"
attr iterationvars2 "$net=one_cache_scenario_3_links, $rep=7, $priceratiovalue=10, $weights=0.333_0.333_0.334, $a=1.2, $ctlg=1e5, $F=nrr, $ttl=1000, $D=costprobprodcorr0.01, $xi=1.25, $R=lru, $csize=1e3, $repetition=0"
attr measurement "$net=one_cache_scenario_3_links, $rep=7, $priceratiovalue=10, $weights=0.333_0.333_0.334, $a=1.2, $ctlg=1e5, $F=nrr, $ttl=1000, $D=costprobprodcorr0.01, $xi=1.25, $R=lru, $csize=1e3"
attr net one_cache_scenario_3_links
attr network networks.${net=one_cache_scenario_3_links}_network
attr priceratiovalue 10
attr processid 20299
attr rep 7
attr repetition 0
attr replication #0
attr resultdir results
attr runnumber 774
attr seedset 7
attr ttl 1000
attr weights 0.333_0.333_0.334
attr xi 1.25

scalar . 	a 	1.2
scalar . 	csize 	1e3
scalar . 	ctlg 	1e5
scalar . 	priceratiovalue 	10
scalar . 	rep 	7
scalar . 	ttl 	1000
scalar . 	xi 	1.25
scalar one_cache_scenario_3_links_network.content_distribution 	repo-0 	4
scalar one_cache_scenario_3_links_network.content_distribution 	repo-1 	5
scalar one_cache_scenario_3_links_network.content_distribution 	repo-2 	6
scalar one_cache_scenario_3_links_network.content_distribution 	client-0 	0
scalar one_cache_scenario_3_links_network.content_distribution 	repo-0_card 	33104
scalar one_cache_scenario_3_links_network.content_distribution 	repo-1_card 	33508
scalar one_cache_scenario_3_links_network.content_distribution 	repo-2_card 	33388
scalar one_cache_scenario_3_links_network.statistics 	p_hit 	0.2291350817147
scalar one_cache_scenario_3_links_network.statistics 	interests 	53050.428571429
scalar one_cache_scenario_3_links_network.statistics 	data 	27263.142857143
scalar one_cache_scenario_3_links_network.statistics 	hdistance 	1.0572319692429
scalar one_cache_scenario_3_links_network.statistics 	avg_time 	0
scalar one_cache_scenario_3_links_network.statistics 	downloads 	180511
scalar one_cache_scenario_3_links_network.statistics 	total_cost 	99073
scalar one_cache_scenario_3_links_network.statistics 	total_replicas 	100000
scalar one_cache_scenario_3_links_network.statistics 	interests_sent 	180511
scalar one_cache_scenario_3_links_network.node[0].core_layer 	interests[0] 	180511
scalar one_cache_scenario_3_links_network.node[0].core_layer 	data[0] 	95421
scalar one_cache_scenario_3_links_network.node[0].core_layer 	repo_int[0] 	95421
scalar one_cache_scenario_3_links_network.node[0].content_store 	p_hit[0] 	0.47138401537856
scalar one_cache_scenario_3_links_network.node[0].content_store 	hits[0] 	85090
scalar one_cache_scenario_3_links_network.node[0].content_store 	misses[0] 	95421
scalar one_cache_scenario_3_links_network.node[0].content_store 	decision_yes[0] 	248
scalar one_cache_scenario_3_links_network.node[0].content_store 	decision_no[0] 	95173
scalar one_cache_scenario_3_links_network.node[0].content_store 	decision_ratio[0] 	0.0025990086039761
scalar one_cache_scenario_3_links_network.node[0].content_store 	correction_factor[0] 	0.0015942725492031
scalar one_cache_scenario_3_links_network.node[0].content_store 	xi[0] 	1.25
scalar one_cache_scenario_3_links_network.node[1].core_layer 	interests[1] 	69941
scalar one_cache_scenario_3_links_network.node[1].core_layer 	data[1] 	69941
scalar one_cache_scenario_3_links_network.node[1].content_store 	p_hit[1] 	0
scalar one_cache_scenario_3_links_network.node[1].content_store 	hits[1] 	0
scalar one_cache_scenario_3_links_network.node[1].content_store 	misses[1] 	69941
scalar one_cache_scenario_3_links_network.node[1].content_store 	decision_yes[1] 	0
scalar one_cache_scenario_3_links_network.node[1].content_store 	decision_no[1] 	69941
scalar one_cache_scenario_3_links_network.node[1].content_store 	decision_ratio[1] 	0
scalar one_cache_scenario_3_links_network.node[2].core_layer 	interests[2] 	17303
scalar one_cache_scenario_3_links_network.node[2].core_layer 	data[2] 	17303
scalar one_cache_scenario_3_links_network.node[2].content_store 	p_hit[2] 	0
scalar one_cache_scenario_3_links_network.node[2].content_store 	hits[2] 	0
scalar one_cache_scenario_3_links_network.node[2].content_store 	misses[2] 	17303
scalar one_cache_scenario_3_links_network.node[2].content_store 	decision_yes[2] 	0
scalar one_cache_scenario_3_links_network.node[2].content_store 	decision_no[2] 	17303
scalar one_cache_scenario_3_links_network.node[2].content_store 	decision_ratio[2] 	0
scalar one_cache_scenario_3_links_network.node[3].core_layer 	interests[3] 	8177
scalar one_cache_scenario_3_links_network.node[3].core_layer 	data[3] 	8177
scalar one_cache_scenario_3_links_network.node[3].content_store 	p_hit[3] 	0
scalar one_cache_scenario_3_links_network.node[3].content_store 	hits[3] 	0
scalar one_cache_scenario_3_links_network.node[3].content_store 	misses[3] 	8177
scalar one_cache_scenario_3_links_network.node[3].content_store 	decision_yes[3] 	0
scalar one_cache_scenario_3_links_network.node[3].content_store 	decision_no[3] 	8177
scalar one_cache_scenario_3_links_network.node[3].content_store 	decision_ratio[3] 	0
scalar one_cache_scenario_3_links_network.node[4].core_layer 	interests[4] 	69941
scalar one_cache_scenario_3_links_network.node[4].core_layer 	repo_load[4] 	69941
scalar one_cache_scenario_3_links_network.node[4].core_layer 	data[4] 	0
scalar one_cache_scenario_3_links_network.node[4].content_store 	p_hit[4] 	0
scalar one_cache_scenario_3_links_network.node[4].content_store 	hits[4] 	0
scalar one_cache_scenario_3_links_network.node[4].content_store 	misses[4] 	69941
scalar one_cache_scenario_3_links_network.node[4].content_store 	decision_yes[4] 	0
scalar one_cache_scenario_3_links_network.node[4].content_store 	decision_no[4] 	69941
scalar one_cache_scenario_3_links_network.node[4].content_store 	decision_ratio[4] 	0
scalar one_cache_scenario_3_links_network.node[5].core_layer 	interests[5] 	17303
scalar one_cache_scenario_3_links_network.node[5].core_layer 	repo_load[5] 	17303
scalar one_cache_scenario_3_links_network.node[5].core_layer 	data[5] 	0
scalar one_cache_scenario_3_links_network.node[5].content_store 	p_hit[5] 	0
scalar one_cache_scenario_3_links_network.node[5].content_store 	hits[5] 	0
scalar one_cache_scenario_3_links_network.node[5].content_store 	misses[5] 	17303
scalar one_cache_scenario_3_links_network.node[5].content_store 	decision_yes[5] 	0
scalar one_cache_scenario_3_links_network.node[5].content_store 	decision_no[5] 	17303
scalar one_cache_scenario_3_links_network.node[5].content_store 	decision_ratio[5] 	0
scalar one_cache_scenario_3_links_network.node[6].core_layer 	interests[6] 	8177
scalar one_cache_scenario_3_links_network.node[6].core_layer 	repo_load[6] 	8177
scalar one_cache_scenario_3_links_network.node[6].core_layer 	data[6] 	0
scalar one_cache_scenario_3_links_network.node[6].content_store 	p_hit[6] 	0
scalar one_cache_scenario_3_links_network.node[6].content_store 	hits[6] 	0
scalar one_cache_scenario_3_links_network.node[6].content_store 	misses[6] 	8177
scalar one_cache_scenario_3_links_network.node[6].content_store 	decision_yes[6] 	0
scalar one_cache_scenario_3_links_network.node[6].content_store 	decision_no[6] 	8177
scalar one_cache_scenario_3_links_network.node[6].content_store 	decision_ratio[6] 	0
scalar one_cache_scenario_3_links_network.client[0] 	hdistance[0] 	1.0572319692429
scalar one_cache_scenario_3_links_network.client[0] 	downloads[0] 	180511
scalar one_cache_scenario_3_links_network.client[0] 	avg_time[0] 	0
scalar one_cache_scenario_3_links_network.client[0] 	interests_sent[0] 	180511
