version 2
run General-19-20140908-17:17:10-16902
attr D fix0.01
attr F spr
attr R lru
attr a 1
attr configname General
attr csize 1e3
attr ctlg 1e5
attr datetime 20140908-17:17:10
attr experiment General
attr inifile omnetpp.ini
attr iterationvars "$net=tiger_cost, $rep=19, $priceratiovalue=10, $weights=0.333_0.333_0.334, $lambda=100, $a=1, $ctlg=1e5, $F=spr, $ttl=10, $D=fix0.01, $xi=1, $R=lru, $csize=1e3, $pricebits=0, $window=60, $variance=0.05, $mytime=1800"
attr iterationvars2 "$net=tiger_cost, $rep=19, $priceratiovalue=10, $weights=0.333_0.333_0.334, $lambda=100, $a=1, $ctlg=1e5, $F=spr, $ttl=10, $D=fix0.01, $xi=1, $R=lru, $csize=1e3, $pricebits=0, $window=60, $variance=0.05, $mytime=1800, $repetition=0"
attr lambda 100
attr measurement "$net=tiger_cost, $rep=19, $priceratiovalue=10, $weights=0.333_0.333_0.334, $lambda=100, $a=1, $ctlg=1e5, $F=spr, $ttl=10, $D=fix0.01, $xi=1, $R=lru, $csize=1e3, $pricebits=0, $window=60, $variance=0.05, $mytime=1800"
attr mytime 1800
attr net tiger_cost
attr network networks.${net=level3_cost,tiger_cost,dtelecom_cost}_network
attr pricebits 0
attr priceratiovalue 10
attr processid 16902
attr rep 19
attr repetition 0
attr replication #0
attr resultdir results
attr runnumber 19
attr seedset 19
attr ttl 10
attr variance 0.05
attr weights 0.333_0.333_0.334
attr window 60
attr xi 1

scalar . 	a 	1
scalar . 	csize 	1e3
scalar . 	ctlg 	1e5
scalar . 	lambda 	100
scalar . 	mytime 	1800
scalar . 	pricebits 	0
scalar . 	priceratiovalue 	10
scalar . 	rep 	19
scalar . 	ttl 	10
scalar . 	variance 	0.05
scalar . 	window 	60
scalar . 	xi 	1
scalar tiger_cost_network.content_distribution 	repo-0 	3
scalar tiger_cost_network.content_distribution 	repo-1 	0
scalar tiger_cost_network.content_distribution 	repo-2 	14
scalar tiger_cost_network.content_distribution 	client-0 	3
scalar tiger_cost_network.content_distribution 	client-1 	20
scalar tiger_cost_network.content_distribution 	client-2 	1
scalar tiger_cost_network.content_distribution 	repo-0_card 	33373
scalar tiger_cost_network.content_distribution 	repo-0_price 	10
scalar tiger_cost_network.content_distribution 	repo-1_card 	33385
scalar tiger_cost_network.content_distribution 	repo-1_price 	1
scalar tiger_cost_network.content_distribution 	repo-2_card 	33242
scalar tiger_cost_network.content_distribution 	repo-2_price 	0
scalar tiger_cost_network.statistics 	repo_popularity[0] 	0.41183223595039
scalar tiger_cost_network.statistics 	repo_popularity[1] 	0.29096057586331
scalar tiger_cost_network.statistics 	repo_popularity[2] 	0.29720718818631
scalar tiger_cost_network.statistics 	stabilization_time 	36060
scalar tiger_cost_network.statistics 	p_hit 	0.16544677896063
scalar tiger_cost_network.statistics 	interests 	63623.590909091
scalar tiger_cost_network.statistics 	data 	39053.454545455
scalar tiger_cost_network.statistics 	hdistance 	2.1605235157363
scalar tiger_cost_network.statistics 	avg_time 	0.000634797344
scalar tiger_cost_network.statistics 	downloads 	540537
scalar tiger_cost_network.statistics 	total_cost 	1214876
scalar tiger_cost_network.statistics 	total_replicas 	100000
scalar tiger_cost_network.statistics 	inner_hit 	0.42842395617691
scalar tiger_cost_network.statistics 	interests_sent 	540543
scalar tiger_cost_network.node[0].core_layer 	interests[0] 	105547
scalar tiger_cost_network.node[0].core_layer 	repo_load[0] 	97206
scalar tiger_cost_network.node[0].core_layer 	data[0] 	0
scalar tiger_cost_network.node[0].core_layer 	repo_int[0] 	308958
scalar tiger_cost_network.node[0].content_store 	p_hit[0] 	0.079026405298114
scalar tiger_cost_network.node[0].content_store 	hits[0] 	8341
scalar tiger_cost_network.node[0].content_store 	misses[0] 	97206
scalar tiger_cost_network.node[0].content_store 	decision_yes[0] 	993
scalar tiger_cost_network.node[0].content_store 	decision_no[0] 	96213
scalar tiger_cost_network.node[0].content_store 	decision_ratio[0] 	0.010215418801309
scalar tiger_cost_network.node[1].core_layer 	interests[1] 	180651
scalar tiger_cost_network.node[1].core_layer 	data[1] 	120097
scalar tiger_cost_network.node[1].content_store 	p_hit[1] 	0.33518773768205
scalar tiger_cost_network.node[1].content_store 	hits[1] 	60552
scalar tiger_cost_network.node[1].content_store 	misses[1] 	120099
scalar tiger_cost_network.node[1].content_store 	decision_yes[1] 	1189
scalar tiger_cost_network.node[1].content_store 	decision_no[1] 	118908
scalar tiger_cost_network.node[1].content_store 	decision_ratio[1] 	0.0099003305661257
scalar tiger_cost_network.node[2].core_layer 	interests[2] 	121819
scalar tiger_cost_network.node[2].core_layer 	data[2] 	114365
scalar tiger_cost_network.node[2].content_store 	p_hit[2] 	0.061189141266962
scalar tiger_cost_network.node[2].content_store 	hits[2] 	7454
scalar tiger_cost_network.node[2].content_store 	misses[2] 	114365
scalar tiger_cost_network.node[2].content_store 	decision_yes[2] 	1154
scalar tiger_cost_network.node[2].content_store 	decision_no[2] 	113211
scalar tiger_cost_network.node[2].content_store 	decision_ratio[2] 	0.010090499715822
scalar tiger_cost_network.node[3].core_layer 	interests[3] 	322302
scalar tiger_cost_network.node[3].core_layer 	repo_load[3] 	111767
scalar tiger_cost_network.node[3].core_layer 	data[3] 	152375
scalar tiger_cost_network.node[3].content_store 	p_hit[3] 	0.18044256628876
scalar tiger_cost_network.node[3].content_store 	hits[3] 	58157
scalar tiger_cost_network.node[3].content_store 	misses[3] 	264145
scalar tiger_cost_network.node[3].content_store 	decision_yes[3] 	2658
scalar tiger_cost_network.node[3].content_store 	decision_no[3] 	261484
scalar tiger_cost_network.node[3].content_store 	decision_ratio[3] 	0.010062769268045
scalar tiger_cost_network.node[4].core_layer 	interests[4] 	70515
scalar tiger_cost_network.node[4].core_layer 	data[4] 	67647
scalar tiger_cost_network.node[4].content_store 	p_hit[4] 	0.040672197404807
scalar tiger_cost_network.node[4].content_store 	hits[4] 	2868
scalar tiger_cost_network.node[4].content_store 	misses[4] 	67647
scalar tiger_cost_network.node[4].content_store 	decision_yes[4] 	666
scalar tiger_cost_network.node[4].content_store 	decision_no[4] 	66981
scalar tiger_cost_network.node[4].content_store 	decision_ratio[4] 	0.0098452259523704
scalar tiger_cost_network.node[5].core_layer 	interests[5] 	0
scalar tiger_cost_network.node[5].core_layer 	data[5] 	0
scalar tiger_cost_network.node[5].content_store 	p_hit[5] 	-nan
scalar tiger_cost_network.node[5].content_store 	hits[5] 	0
scalar tiger_cost_network.node[5].content_store 	misses[5] 	0
scalar tiger_cost_network.node[5].content_store 	decision_yes[5] 	0
scalar tiger_cost_network.node[5].content_store 	decision_no[5] 	0
scalar tiger_cost_network.node[5].content_store 	decision_ratio[5] 	0
scalar tiger_cost_network.node[6].core_layer 	interests[6] 	0
scalar tiger_cost_network.node[6].core_layer 	data[6] 	0
scalar tiger_cost_network.node[6].content_store 	p_hit[6] 	-nan
scalar tiger_cost_network.node[6].content_store 	hits[6] 	0
scalar tiger_cost_network.node[6].content_store 	misses[6] 	0
scalar tiger_cost_network.node[6].content_store 	decision_yes[6] 	0
scalar tiger_cost_network.node[6].content_store 	decision_no[6] 	0
scalar tiger_cost_network.node[6].content_store 	decision_ratio[6] 	0
scalar tiger_cost_network.node[7].core_layer 	interests[7] 	0
scalar tiger_cost_network.node[7].core_layer 	data[7] 	0
scalar tiger_cost_network.node[7].content_store 	p_hit[7] 	-nan
scalar tiger_cost_network.node[7].content_store 	hits[7] 	0
scalar tiger_cost_network.node[7].content_store 	misses[7] 	0
scalar tiger_cost_network.node[7].content_store 	decision_yes[7] 	0
scalar tiger_cost_network.node[7].content_store 	decision_no[7] 	0
scalar tiger_cost_network.node[7].content_store 	decision_ratio[7] 	0
scalar tiger_cost_network.node[8].core_layer 	interests[8] 	0
scalar tiger_cost_network.node[8].core_layer 	data[8] 	0
scalar tiger_cost_network.node[8].content_store 	p_hit[8] 	-nan
scalar tiger_cost_network.node[8].content_store 	hits[8] 	0
scalar tiger_cost_network.node[8].content_store 	misses[8] 	0
scalar tiger_cost_network.node[8].content_store 	decision_yes[8] 	0
scalar tiger_cost_network.node[8].content_store 	decision_no[8] 	0
scalar tiger_cost_network.node[8].content_store 	decision_ratio[8] 	0
scalar tiger_cost_network.node[9].core_layer 	interests[9] 	0
scalar tiger_cost_network.node[9].core_layer 	data[9] 	0
scalar tiger_cost_network.node[9].content_store 	p_hit[9] 	-nan
scalar tiger_cost_network.node[9].content_store 	hits[9] 	0
scalar tiger_cost_network.node[9].content_store 	misses[9] 	0
scalar tiger_cost_network.node[9].content_store 	decision_yes[9] 	0
scalar tiger_cost_network.node[9].content_store 	decision_no[9] 	0
scalar tiger_cost_network.node[9].content_store 	decision_ratio[9] 	0
scalar tiger_cost_network.node[10].core_layer 	interests[10] 	40899
scalar tiger_cost_network.node[10].core_layer 	data[10] 	34685
scalar tiger_cost_network.node[10].content_store 	p_hit[10] 	0.15193525514071
scalar tiger_cost_network.node[10].content_store 	hits[10] 	6214
scalar tiger_cost_network.node[10].content_store 	misses[10] 	34685
scalar tiger_cost_network.node[10].content_store 	decision_yes[10] 	333
scalar tiger_cost_network.node[10].content_store 	decision_no[10] 	34352
scalar tiger_cost_network.node[10].content_store 	decision_ratio[10] 	0.0096006919417616
scalar tiger_cost_network.node[11].core_layer 	interests[11] 	34685
scalar tiger_cost_network.node[11].core_layer 	data[11] 	32119
scalar tiger_cost_network.node[11].content_store 	p_hit[11] 	0.073980106674355
scalar tiger_cost_network.node[11].content_store 	hits[11] 	2566
scalar tiger_cost_network.node[11].content_store 	misses[11] 	32119
scalar tiger_cost_network.node[11].content_store 	decision_yes[11] 	344
scalar tiger_cost_network.node[11].content_store 	decision_no[11] 	31775
scalar tiger_cost_network.node[11].content_store 	decision_ratio[11] 	0.01071017154955
scalar tiger_cost_network.node[12].core_layer 	interests[12] 	39457
scalar tiger_cost_network.node[12].core_layer 	data[12] 	35023
scalar tiger_cost_network.node[12].content_store 	p_hit[12] 	0.11237549737689
scalar tiger_cost_network.node[12].content_store 	hits[12] 	4434
scalar tiger_cost_network.node[12].content_store 	misses[12] 	35023
scalar tiger_cost_network.node[12].content_store 	decision_yes[12] 	311
scalar tiger_cost_network.node[12].content_store 	decision_no[12] 	34712
scalar tiger_cost_network.node[12].content_store 	decision_ratio[12] 	0.0088798789366987
scalar tiger_cost_network.node[13].core_layer 	interests[13] 	0
scalar tiger_cost_network.node[13].core_layer 	data[13] 	0
scalar tiger_cost_network.node[13].content_store 	p_hit[13] 	-nan
scalar tiger_cost_network.node[13].content_store 	hits[13] 	0
scalar tiger_cost_network.node[13].content_store 	misses[13] 	0
scalar tiger_cost_network.node[13].content_store 	decision_yes[13] 	0
scalar tiger_cost_network.node[13].content_store 	decision_no[13] 	0
scalar tiger_cost_network.node[13].content_store 	decision_ratio[13] 	0
scalar tiger_cost_network.node[14].core_layer 	interests[14] 	109754
scalar tiger_cost_network.node[14].core_layer 	repo_load[14] 	99985
scalar tiger_cost_network.node[14].core_layer 	data[14] 	0
scalar tiger_cost_network.node[14].content_store 	p_hit[14] 	0.089008145489003
scalar tiger_cost_network.node[14].content_store 	hits[14] 	9769
scalar tiger_cost_network.node[14].content_store 	misses[14] 	99985
scalar tiger_cost_network.node[14].content_store 	decision_yes[14] 	1054
scalar tiger_cost_network.node[14].content_store 	decision_no[14] 	98931
scalar tiger_cost_network.node[14].content_store 	decision_ratio[14] 	0.010541581237186
scalar tiger_cost_network.node[15].core_layer 	interests[15] 	0
scalar tiger_cost_network.node[15].core_layer 	data[15] 	0
scalar tiger_cost_network.node[15].content_store 	p_hit[15] 	-nan
scalar tiger_cost_network.node[15].content_store 	hits[15] 	0
scalar tiger_cost_network.node[15].content_store 	misses[15] 	0
scalar tiger_cost_network.node[15].content_store 	decision_yes[15] 	0
scalar tiger_cost_network.node[15].content_store 	decision_no[15] 	0
scalar tiger_cost_network.node[15].content_store 	decision_ratio[15] 	0
scalar tiger_cost_network.node[16].core_layer 	interests[16] 	0
scalar tiger_cost_network.node[16].core_layer 	data[16] 	0
scalar tiger_cost_network.node[16].content_store 	p_hit[16] 	-nan
scalar tiger_cost_network.node[16].content_store 	hits[16] 	0
scalar tiger_cost_network.node[16].content_store 	misses[16] 	0
scalar tiger_cost_network.node[16].content_store 	decision_yes[16] 	0
scalar tiger_cost_network.node[16].content_store 	decision_no[16] 	0
scalar tiger_cost_network.node[16].content_store 	decision_ratio[16] 	0
scalar tiger_cost_network.node[17].core_layer 	interests[17] 	74155
scalar tiger_cost_network.node[17].core_layer 	data[17] 	70515
scalar tiger_cost_network.node[17].content_store 	p_hit[17] 	0.049086373137347
scalar tiger_cost_network.node[17].content_store 	hits[17] 	3640
scalar tiger_cost_network.node[17].content_store 	misses[17] 	70515
scalar tiger_cost_network.node[17].content_store 	decision_yes[17] 	731
scalar tiger_cost_network.node[17].content_store 	decision_no[17] 	69784
scalar tiger_cost_network.node[17].content_store 	decision_ratio[17] 	0.010366588669078
scalar tiger_cost_network.node[18].core_layer 	interests[18] 	119790
scalar tiger_cost_network.node[18].core_layer 	data[18] 	112560
scalar tiger_cost_network.node[18].content_store 	p_hit[18] 	0.060355622339093
scalar tiger_cost_network.node[18].content_store 	hits[18] 	7230
scalar tiger_cost_network.node[18].content_store 	misses[18] 	112560
scalar tiger_cost_network.node[18].content_store 	decision_yes[18] 	1176
scalar tiger_cost_network.node[18].content_store 	decision_no[18] 	111384
scalar tiger_cost_network.node[18].content_store 	decision_ratio[18] 	0.01044776119403
scalar tiger_cost_network.node[19].core_layer 	interests[19] 	0
scalar tiger_cost_network.node[19].core_layer 	data[19] 	0
scalar tiger_cost_network.node[19].content_store 	p_hit[19] 	-nan
scalar tiger_cost_network.node[19].content_store 	hits[19] 	0
scalar tiger_cost_network.node[19].content_store 	misses[19] 	0
scalar tiger_cost_network.node[19].content_store 	decision_yes[19] 	0
scalar tiger_cost_network.node[19].content_store 	decision_no[19] 	0
scalar tiger_cost_network.node[19].content_store 	decision_ratio[19] 	0
scalar tiger_cost_network.node[20].core_layer 	interests[20] 	180145
scalar tiger_cost_network.node[20].core_layer 	data[20] 	119790
scalar tiger_cost_network.node[20].content_store 	p_hit[20] 	0.33503011462988
scalar tiger_cost_network.node[20].content_store 	hits[20] 	60354
scalar tiger_cost_network.node[20].content_store 	misses[20] 	119791
scalar tiger_cost_network.node[20].content_store 	decision_yes[20] 	1166
scalar tiger_cost_network.node[20].content_store 	decision_no[20] 	118624
scalar tiger_cost_network.node[20].content_store 	decision_ratio[20] 	0.0097337006427916
scalar tiger_cost_network.node[21].core_layer 	interests[21] 	0
scalar tiger_cost_network.node[21].core_layer 	data[21] 	0
scalar tiger_cost_network.node[21].content_store 	p_hit[21] 	-nan
scalar tiger_cost_network.node[21].content_store 	hits[21] 	0
scalar tiger_cost_network.node[21].content_store 	misses[21] 	0
scalar tiger_cost_network.node[21].content_store 	decision_yes[21] 	0
scalar tiger_cost_network.node[21].content_store 	decision_no[21] 	0
scalar tiger_cost_network.node[21].content_store 	decision_ratio[21] 	0
scalar tiger_cost_network.client[1] 	hdistance[1] 	2.2030955056491
scalar tiger_cost_network.client[1] 	downloads[1] 	180649
scalar tiger_cost_network.client[1] 	avg_time[1] 	0.000652706495
scalar tiger_cost_network.client[1] 	interests_sent[1] 	180651
scalar tiger_cost_network.client[3] 	hdistance[3] 	1.4865197169308
scalar tiger_cost_network.client[3] 	downloads[3] 	179744
scalar tiger_cost_network.client[3] 	avg_time[3] 	0.000446447227
scalar tiger_cost_network.client[3] 	interests_sent[3] 	179747
scalar tiger_cost_network.client[20] 	hdistance[20] 	2.7919553246292
scalar tiger_cost_network.client[20] 	downloads[20] 	180144
scalar tiger_cost_network.client[20] 	avg_time[20] 	0.000805238312
scalar tiger_cost_network.client[20] 	interests_sent[20] 	180145
