version 2
run General-8-20140930-18:56:49-22568
attr D fix0.01
attr F spr
attr R lru
attr a 1
attr configname General
attr csize 1e3
attr ctlg 1e5
attr datetime 20140930-18:56:49
attr experiment General
attr inifile omnetpp.ini
attr iterationvars "$net=tiger_cost, $rep=7, $priceratiovalue=10, $weights=0.333_0.333_0.334, $lambda=100, $a=1, $ctlg=1e5, $F=spr, $ttl=10, $D=fix0.01, $xi=1, $R=lru, $csize=1e3, $pricebits=0, $window=60, $variance=0.05, $mytime=1800"
attr iterationvars2 "$net=tiger_cost, $rep=7, $priceratiovalue=10, $weights=0.333_0.333_0.334, $lambda=100, $a=1, $ctlg=1e5, $F=spr, $ttl=10, $D=fix0.01, $xi=1, $R=lru, $csize=1e3, $pricebits=0, $window=60, $variance=0.05, $mytime=1800, $repetition=0"
attr lambda 100
attr measurement "$net=tiger_cost, $rep=7, $priceratiovalue=10, $weights=0.333_0.333_0.334, $lambda=100, $a=1, $ctlg=1e5, $F=spr, $ttl=10, $D=fix0.01, $xi=1, $R=lru, $csize=1e3, $pricebits=0, $window=60, $variance=0.05, $mytime=1800"
attr mytime 1800
attr net tiger_cost
attr network networks.${net=tiger_cost,dtelecom_cost}_network
attr pricebits 0
attr priceratiovalue 10
attr processid 22568
attr rep 7
attr repetition 0
attr replication #0
attr resultdir results
attr runnumber 8
attr seedset 7
attr ttl 10
attr variance 0.05
attr weights 0.333_0.333_0.334
attr window 60
attr xi 1

scalar . 	a 	1
scalar . 	csize 	1e3
scalar . 	ctlg 	1e5
scalar . 	lambda 	100
scalar . 	mytime 	1800
scalar . 	pricebits 	0
scalar . 	priceratiovalue 	10
scalar . 	rep 	7
scalar . 	ttl 	10
scalar . 	variance 	0.05
scalar . 	window 	60
scalar . 	xi 	1
scalar tiger_cost_network.content_distribution 	repo-0 	21
scalar tiger_cost_network.content_distribution 	repo-1 	4
scalar tiger_cost_network.content_distribution 	repo-2 	12
scalar tiger_cost_network.content_distribution 	client-0 	4
scalar tiger_cost_network.content_distribution 	client-1 	6
scalar tiger_cost_network.content_distribution 	client-2 	11
scalar tiger_cost_network.content_distribution 	repo-0_card 	33105
scalar tiger_cost_network.content_distribution 	repo-0_price 	0
scalar tiger_cost_network.content_distribution 	repo-1_card 	33508
scalar tiger_cost_network.content_distribution 	repo-1_price 	1
scalar tiger_cost_network.content_distribution 	repo-2_card 	33387
scalar tiger_cost_network.content_distribution 	repo-2_price 	10
scalar tiger_cost_network.statistics 	repo_popularity[0] 	0.38081187055787
scalar tiger_cost_network.statistics 	repo_popularity[1] 	0.26942063079195
scalar tiger_cost_network.statistics 	repo_popularity[2] 	0.3497674986502
scalar tiger_cost_network.statistics 	stabilization_time 	36120
scalar tiger_cost_network.statistics 	p_hit 	0.17018733998411
scalar tiger_cost_network.statistics 	interests 	64357.954545455
scalar tiger_cost_network.statistics 	data 	39830.090909091
scalar tiger_cost_network.statistics 	hdistance 	2.1777460640036
scalar tiger_cost_network.statistics 	avg_time 	0.000626179993
scalar tiger_cost_network.statistics 	downloads 	539599
scalar tiger_cost_network.statistics 	total_cost 	1127503
scalar tiger_cost_network.statistics 	total_replicas 	100000
scalar tiger_cost_network.statistics 	inner_hit 	0.4465612427006
scalar tiger_cost_network.node[0].core_layer 	interests[0] 	35666
scalar tiger_cost_network.node[0].core_layer 	data[0] 	33368
scalar tiger_cost_network.node[0].core_layer 	repo_int[0] 	298635
scalar tiger_cost_network.node[0].content_store 	p_hit[0] 	0.064431110861885
scalar tiger_cost_network.node[0].content_store 	hits[0] 	2298
scalar tiger_cost_network.node[0].content_store 	misses[0] 	33368
scalar tiger_cost_network.node[0].content_store 	decision_yes[0] 	305
scalar tiger_cost_network.node[0].content_store 	decision_no[0] 	33063
scalar tiger_cost_network.node[0].content_store 	decision_ratio[0] 	0.0091404938863582
scalar tiger_cost_network.node[1].core_layer 	interests[1] 	0
scalar tiger_cost_network.node[1].core_layer 	data[1] 	0
scalar tiger_cost_network.node[1].content_store 	p_hit[1] 	-nan
scalar tiger_cost_network.node[1].content_store 	hits[1] 	0
scalar tiger_cost_network.node[1].content_store 	misses[1] 	0
scalar tiger_cost_network.node[1].content_store 	decision_yes[1] 	0
scalar tiger_cost_network.node[1].content_store 	decision_no[1] 	0
scalar tiger_cost_network.node[1].content_store 	decision_ratio[1] 	0
scalar tiger_cost_network.node[2].core_layer 	interests[2] 	76277
scalar tiger_cost_network.node[2].core_layer 	data[2] 	71813
scalar tiger_cost_network.node[2].content_store 	p_hit[2] 	0.058523539205789
scalar tiger_cost_network.node[2].content_store 	hits[2] 	4464
scalar tiger_cost_network.node[2].content_store 	misses[2] 	71813
scalar tiger_cost_network.node[2].content_store 	decision_yes[2] 	708
scalar tiger_cost_network.node[2].content_store 	decision_no[2] 	71105
scalar tiger_cost_network.node[2].content_store 	decision_ratio[2] 	0.0098589391892833
scalar tiger_cost_network.node[3].core_layer 	interests[3] 	79934
scalar tiger_cost_network.node[3].core_layer 	data[3] 	72980
scalar tiger_cost_network.node[3].content_store 	p_hit[3] 	0.086996772337178
scalar tiger_cost_network.node[3].content_store 	hits[3] 	6954
scalar tiger_cost_network.node[3].content_store 	misses[3] 	72980
scalar tiger_cost_network.node[3].content_store 	decision_yes[3] 	692
scalar tiger_cost_network.node[3].content_store 	decision_no[3] 	72288
scalar tiger_cost_network.node[3].content_store 	decision_ratio[3] 	0.0094820498766785
scalar tiger_cost_network.node[4].core_layer 	interests[4] 	249805
scalar tiger_cost_network.node[4].core_layer 	repo_load[4] 	106763
scalar tiger_cost_network.node[4].core_layer 	data[4] 	83072
scalar tiger_cost_network.node[4].content_store 	p_hit[4] 	0.24005524308961
scalar tiger_cost_network.node[4].content_store 	hits[4] 	59967
scalar tiger_cost_network.node[4].content_store 	misses[4] 	189838
scalar tiger_cost_network.node[4].content_store 	decision_yes[4] 	1941
scalar tiger_cost_network.node[4].content_store 	decision_no[4] 	187894
scalar tiger_cost_network.node[4].content_store 	decision_ratio[4] 	0.010224668791319
scalar tiger_cost_network.node[5].core_layer 	interests[5] 	39262
scalar tiger_cost_network.node[5].core_layer 	data[5] 	34315
scalar tiger_cost_network.node[5].content_store 	p_hit[5] 	0.12599969436096
scalar tiger_cost_network.node[5].content_store 	hits[5] 	4947
scalar tiger_cost_network.node[5].content_store 	misses[5] 	34315
scalar tiger_cost_network.node[5].content_store 	decision_yes[5] 	305
scalar tiger_cost_network.node[5].content_store 	decision_no[5] 	34010
scalar tiger_cost_network.node[5].content_store 	decision_ratio[5] 	0.0088882412938948
scalar tiger_cost_network.node[6].core_layer 	interests[6] 	179075
scalar tiger_cost_network.node[6].core_layer 	data[6] 	118841
scalar tiger_cost_network.node[6].content_store 	p_hit[6] 	0.33632276978919
scalar tiger_cost_network.node[6].content_store 	hits[6] 	60227
scalar tiger_cost_network.node[6].content_store 	misses[6] 	118848
scalar tiger_cost_network.node[6].content_store 	decision_yes[6] 	1208
scalar tiger_cost_network.node[6].content_store 	decision_no[6] 	117633
scalar tiger_cost_network.node[6].content_store 	decision_ratio[6] 	0.010164842099949
scalar tiger_cost_network.node[7].core_layer 	interests[7] 	37741
scalar tiger_cost_network.node[7].core_layer 	data[7] 	32394
scalar tiger_cost_network.node[7].content_store 	p_hit[7] 	0.14164966482075
scalar tiger_cost_network.node[7].content_store 	hits[7] 	5346
scalar tiger_cost_network.node[7].content_store 	misses[7] 	32395
scalar tiger_cost_network.node[7].content_store 	decision_yes[7] 	353
scalar tiger_cost_network.node[7].content_store 	decision_no[7] 	32041
scalar tiger_cost_network.node[7].content_store 	decision_ratio[7] 	0.010897079706118
scalar tiger_cost_network.node[8].core_layer 	interests[8] 	32395
scalar tiger_cost_network.node[8].core_layer 	data[8] 	30346
scalar tiger_cost_network.node[8].content_store 	p_hit[8] 	0.063219632659361
scalar tiger_cost_network.node[8].content_store 	hits[8] 	2048
scalar tiger_cost_network.node[8].content_store 	misses[8] 	30347
scalar tiger_cost_network.node[8].content_store 	decision_yes[8] 	301
scalar tiger_cost_network.node[8].content_store 	decision_no[8] 	30045
scalar tiger_cost_network.node[8].content_store 	decision_ratio[8] 	0.0099189349502406
scalar tiger_cost_network.node[9].core_layer 	interests[9] 	33312
scalar tiger_cost_network.node[9].core_layer 	data[9] 	30976
scalar tiger_cost_network.node[9].content_store 	p_hit[9] 	0.070124879923151
scalar tiger_cost_network.node[9].content_store 	hits[9] 	2336
scalar tiger_cost_network.node[9].content_store 	misses[9] 	30976
scalar tiger_cost_network.node[9].content_store 	decision_yes[9] 	333
scalar tiger_cost_network.node[9].content_store 	decision_no[9] 	30643
scalar tiger_cost_network.node[9].content_store 	decision_ratio[9] 	0.010750258264463
scalar tiger_cost_network.node[10].core_layer 	interests[10] 	38021
scalar tiger_cost_network.node[10].core_layer 	data[10] 	33312
scalar tiger_cost_network.node[10].content_store 	p_hit[10] 	0.12385260776939
scalar tiger_cost_network.node[10].content_store 	hits[10] 	4709
scalar tiger_cost_network.node[10].content_store 	misses[10] 	33312
scalar tiger_cost_network.node[10].content_store 	decision_yes[10] 	356
scalar tiger_cost_network.node[10].content_store 	decision_no[10] 	32956
scalar tiger_cost_network.node[10].content_store 	decision_ratio[10] 	0.010686839577329
scalar tiger_cost_network.node[11].core_layer 	interests[11] 	180096
scalar tiger_cost_network.node[11].core_layer 	data[11] 	119964
scalar tiger_cost_network.node[11].content_store 	p_hit[11] 	0.33387748756219
scalar tiger_cost_network.node[11].content_store 	hits[11] 	60130
scalar tiger_cost_network.node[11].content_store 	misses[11] 	119966
scalar tiger_cost_network.node[11].content_store 	decision_yes[11] 	1228
scalar tiger_cost_network.node[11].content_store 	decision_no[11] 	118736
scalar tiger_cost_network.node[11].content_store 	decision_ratio[11] 	0.01023640425461
scalar tiger_cost_network.node[12].core_layer 	interests[12] 	150981
scalar tiger_cost_network.node[12].core_layer 	repo_load[12] 	102074
scalar tiger_cost_network.node[12].core_layer 	data[12] 	38347
scalar tiger_cost_network.node[12].content_store 	p_hit[12] 	0.069942575555865
scalar tiger_cost_network.node[12].content_store 	hits[12] 	10560
scalar tiger_cost_network.node[12].content_store 	misses[12] 	140421
scalar tiger_cost_network.node[12].content_store 	decision_yes[12] 	1385
scalar tiger_cost_network.node[12].content_store 	decision_no[12] 	139036
scalar tiger_cost_network.node[12].content_store 	decision_ratio[12] 	0.0098631971001488
scalar tiger_cost_network.node[13].core_layer 	interests[13] 	0
scalar tiger_cost_network.node[13].core_layer 	data[13] 	0
scalar tiger_cost_network.node[13].content_store 	p_hit[13] 	-nan
scalar tiger_cost_network.node[13].content_store 	hits[13] 	0
scalar tiger_cost_network.node[13].content_store 	misses[13] 	0
scalar tiger_cost_network.node[13].content_store 	decision_yes[13] 	0
scalar tiger_cost_network.node[13].content_store 	decision_no[13] 	0
scalar tiger_cost_network.node[13].content_store 	decision_ratio[13] 	0
scalar tiger_cost_network.node[14].core_layer 	interests[14] 	0
scalar tiger_cost_network.node[14].core_layer 	data[14] 	0
scalar tiger_cost_network.node[14].content_store 	p_hit[14] 	-nan
scalar tiger_cost_network.node[14].content_store 	hits[14] 	0
scalar tiger_cost_network.node[14].content_store 	misses[14] 	0
scalar tiger_cost_network.node[14].content_store 	decision_yes[14] 	0
scalar tiger_cost_network.node[14].content_store 	decision_no[14] 	0
scalar tiger_cost_network.node[14].content_store 	decision_ratio[14] 	0
scalar tiger_cost_network.node[15].core_layer 	interests[15] 	0
scalar tiger_cost_network.node[15].core_layer 	data[15] 	0
scalar tiger_cost_network.node[15].content_store 	p_hit[15] 	-nan
scalar tiger_cost_network.node[15].content_store 	hits[15] 	0
scalar tiger_cost_network.node[15].content_store 	misses[15] 	0
scalar tiger_cost_network.node[15].content_store 	decision_yes[15] 	0
scalar tiger_cost_network.node[15].content_store 	decision_no[15] 	0
scalar tiger_cost_network.node[15].content_store 	decision_ratio[15] 	0
scalar tiger_cost_network.node[16].core_layer 	interests[16] 	0
scalar tiger_cost_network.node[16].core_layer 	data[16] 	0
scalar tiger_cost_network.node[16].content_store 	p_hit[16] 	-nan
scalar tiger_cost_network.node[16].content_store 	hits[16] 	0
scalar tiger_cost_network.node[16].content_store 	misses[16] 	0
scalar tiger_cost_network.node[16].content_store 	decision_yes[16] 	0
scalar tiger_cost_network.node[16].content_store 	decision_no[16] 	0
scalar tiger_cost_network.node[16].content_store 	decision_ratio[16] 	0
scalar tiger_cost_network.node[17].core_layer 	interests[17] 	81120
scalar tiger_cost_network.node[17].core_layer 	data[17] 	74288
scalar tiger_cost_network.node[17].content_store 	p_hit[17] 	0.08422090729783
scalar tiger_cost_network.node[17].content_store 	hits[17] 	6832
scalar tiger_cost_network.node[17].content_store 	misses[17] 	74288
scalar tiger_cost_network.node[17].content_store 	decision_yes[17] 	701
scalar tiger_cost_network.node[17].content_store 	decision_no[17] 	73587
scalar tiger_cost_network.node[17].content_store 	decision_ratio[17] 	0.0094362481154426
scalar tiger_cost_network.node[18].core_layer 	interests[18] 	74288
scalar tiger_cost_network.node[18].core_layer 	data[18] 	70041
scalar tiger_cost_network.node[18].content_store 	p_hit[18] 	0.057169394787853
scalar tiger_cost_network.node[18].content_store 	hits[18] 	4247
scalar tiger_cost_network.node[18].content_store 	misses[18] 	70041
scalar tiger_cost_network.node[18].content_store 	decision_yes[18] 	679
scalar tiger_cost_network.node[18].content_store 	decision_no[18] 	69362
scalar tiger_cost_network.node[18].content_store 	decision_ratio[18] 	0.0096943218971745
scalar tiger_cost_network.node[19].core_layer 	interests[19] 	34375
scalar tiger_cost_network.node[19].core_layer 	data[19] 	32205
scalar tiger_cost_network.node[19].content_store 	p_hit[19] 	0.063127272727273
scalar tiger_cost_network.node[19].content_store 	hits[19] 	2170
scalar tiger_cost_network.node[19].content_store 	misses[19] 	32205
scalar tiger_cost_network.node[19].content_store 	decision_yes[19] 	314
scalar tiger_cost_network.node[19].content_store 	decision_no[19] 	31891
scalar tiger_cost_network.node[19].content_store 	decision_ratio[19] 	0.0097500388138488
scalar tiger_cost_network.node[20].core_layer 	interests[20] 	0
scalar tiger_cost_network.node[20].core_layer 	data[20] 	0
scalar tiger_cost_network.node[20].content_store 	p_hit[20] 	-nan
scalar tiger_cost_network.node[20].content_store 	hits[20] 	0
scalar tiger_cost_network.node[20].content_store 	misses[20] 	0
scalar tiger_cost_network.node[20].content_store 	decision_yes[20] 	0
scalar tiger_cost_network.node[20].content_store 	decision_no[20] 	0
scalar tiger_cost_network.node[20].content_store 	decision_ratio[20] 	0
scalar tiger_cost_network.node[21].core_layer 	interests[21] 	93527
scalar tiger_cost_network.node[21].core_layer 	repo_load[21] 	89798
scalar tiger_cost_network.node[21].core_layer 	data[21] 	0
scalar tiger_cost_network.node[21].content_store 	p_hit[21] 	0.03987083943674
scalar tiger_cost_network.node[21].content_store 	hits[21] 	3729
scalar tiger_cost_network.node[21].content_store 	misses[21] 	89798
scalar tiger_cost_network.node[21].content_store 	decision_yes[21] 	896
scalar tiger_cost_network.node[21].content_store 	decision_no[21] 	88902
scalar tiger_cost_network.node[21].content_store 	decision_ratio[21] 	0.0099779505111472
scalar tiger_cost_network.client[4] 	hdistance[4] 	2.0091389238349
scalar tiger_cost_network.client[4] 	downloads[4] 	180437
scalar tiger_cost_network.client[4] 	avg_time[4] 	0.000592308142
scalar tiger_cost_network.client[6] 	hdistance[6] 	2.3285902562155
scalar tiger_cost_network.client[6] 	downloads[6] 	179068
scalar tiger_cost_network.client[6] 	avg_time[6] 	0.000850756941
scalar tiger_cost_network.client[11] 	hdistance[11] 	2.1955090119604
scalar tiger_cost_network.client[11] 	downloads[11] 	180094
scalar tiger_cost_network.client[11] 	avg_time[11] 	0.000435474897
