version 2
run General-8-20140930-18:31:35-19932
attr D fix0.01
attr F spr
attr R lru
attr a 1
attr configname General
attr csize 1e3
attr ctlg 1e5
attr datetime 20140930-18:31:35
attr experiment General
attr inifile omnetpp.ini
attr iterationvars "$net=tiger_cost, $rep=4, $priceratiovalue=10, $weights=0.333_0.333_0.334, $lambda=100, $a=1, $ctlg=1e5, $F=spr, $ttl=10, $D=fix0.01, $xi=1, $R=lru, $csize=1e3, $pricebits=0, $window=60, $variance=0.05, $mytime=1800"
attr iterationvars2 "$net=tiger_cost, $rep=4, $priceratiovalue=10, $weights=0.333_0.333_0.334, $lambda=100, $a=1, $ctlg=1e5, $F=spr, $ttl=10, $D=fix0.01, $xi=1, $R=lru, $csize=1e3, $pricebits=0, $window=60, $variance=0.05, $mytime=1800, $repetition=0"
attr lambda 100
attr measurement "$net=tiger_cost, $rep=4, $priceratiovalue=10, $weights=0.333_0.333_0.334, $lambda=100, $a=1, $ctlg=1e5, $F=spr, $ttl=10, $D=fix0.01, $xi=1, $R=lru, $csize=1e3, $pricebits=0, $window=60, $variance=0.05, $mytime=1800"
attr mytime 1800
attr net tiger_cost
attr network networks.${net=tiger_cost,dtelecom_cost}_network
attr pricebits 0
attr priceratiovalue 10
attr processid 19932
attr rep 4
attr repetition 0
attr replication #0
attr resultdir results
attr runnumber 8
attr seedset 4
attr ttl 10
attr variance 0.05
attr weights 0.333_0.333_0.334
attr window 60
attr xi 1

scalar . 	a 	1
scalar . 	csize 	1e3
scalar . 	ctlg 	1e5
scalar . 	lambda 	100
scalar . 	mytime 	1800
scalar . 	pricebits 	0
scalar . 	priceratiovalue 	10
scalar . 	rep 	4
scalar . 	ttl 	10
scalar . 	variance 	0.05
scalar . 	window 	60
scalar . 	xi 	1
scalar tiger_cost_network.content_distribution 	repo-0 	18
scalar tiger_cost_network.content_distribution 	repo-1 	16
scalar tiger_cost_network.content_distribution 	repo-2 	10
scalar tiger_cost_network.content_distribution 	client-0 	6
scalar tiger_cost_network.content_distribution 	client-1 	2
scalar tiger_cost_network.content_distribution 	client-2 	20
scalar tiger_cost_network.content_distribution 	repo-0_card 	33274
scalar tiger_cost_network.content_distribution 	repo-0_price 	0
scalar tiger_cost_network.content_distribution 	repo-1_card 	33153
scalar tiger_cost_network.content_distribution 	repo-1_price 	1
scalar tiger_cost_network.content_distribution 	repo-2_card 	33573
scalar tiger_cost_network.content_distribution 	repo-2_price 	10
scalar tiger_cost_network.statistics 	repo_popularity[0] 	0.33945880017902
scalar tiger_cost_network.statistics 	repo_popularity[1] 	0.30988277584688
scalar tiger_cost_network.statistics 	repo_popularity[2] 	0.35065842397411
scalar tiger_cost_network.statistics 	stabilization_time 	36060
scalar tiger_cost_network.statistics 	p_hit 	0.18078382070651
scalar tiger_cost_network.statistics 	interests 	62585.045454545
scalar tiger_cost_network.statistics 	data 	38039.181818182
scalar tiger_cost_network.statistics 	hdistance 	2.0888008239295
scalar tiger_cost_network.statistics 	avg_time 	0.000656122614
scalar tiger_cost_network.statistics 	downloads 	540003
scalar tiger_cost_network.statistics 	total_cost 	1020057
scalar tiger_cost_network.statistics 	total_replicas 	100000
scalar tiger_cost_network.statistics 	inner_hit 	0.46095484654715
scalar tiger_cost_network.node[0].core_layer 	interests[0] 	36777
scalar tiger_cost_network.node[0].core_layer 	data[0] 	33605
scalar tiger_cost_network.node[0].core_layer 	repo_int[0] 	291086
scalar tiger_cost_network.node[0].content_store 	p_hit[0] 	0.086249558147755
scalar tiger_cost_network.node[0].content_store 	hits[0] 	3172
scalar tiger_cost_network.node[0].content_store 	misses[0] 	33605
scalar tiger_cost_network.node[0].content_store 	decision_yes[0] 	338
scalar tiger_cost_network.node[0].content_store 	decision_no[0] 	33267
scalar tiger_cost_network.node[0].content_store 	decision_ratio[0] 	0.010058027079304
scalar tiger_cost_network.node[1].core_layer 	interests[1] 	104373
scalar tiger_cost_network.node[1].core_layer 	data[1] 	96829
scalar tiger_cost_network.node[1].content_store 	p_hit[1] 	0.072279229302597
scalar tiger_cost_network.node[1].content_store 	hits[1] 	7544
scalar tiger_cost_network.node[1].content_store 	misses[1] 	96829
scalar tiger_cost_network.node[1].content_store 	decision_yes[1] 	961
scalar tiger_cost_network.node[1].content_store 	decision_no[1] 	95868
scalar tiger_cost_network.node[1].content_store 	decision_ratio[1] 	0.0099247126377428
scalar tiger_cost_network.node[2].core_layer 	interests[2] 	179904
scalar tiger_cost_network.node[2].core_layer 	data[2] 	120311
scalar tiger_cost_network.node[2].content_store 	p_hit[2] 	0.33123221273568
scalar tiger_cost_network.node[2].content_store 	hits[2] 	59590
scalar tiger_cost_network.node[2].content_store 	misses[2] 	120314
scalar tiger_cost_network.node[2].content_store 	decision_yes[2] 	1193
scalar tiger_cost_network.node[2].content_store 	decision_no[2] 	119118
scalar tiger_cost_network.node[2].content_store 	decision_ratio[2] 	0.0099159677834944
scalar tiger_cost_network.node[3].core_layer 	interests[3] 	38706
scalar tiger_cost_network.node[3].core_layer 	data[3] 	32944
scalar tiger_cost_network.node[3].content_store 	p_hit[3] 	0.14886580891851
scalar tiger_cost_network.node[3].content_store 	hits[3] 	5762
scalar tiger_cost_network.node[3].content_store 	misses[3] 	32944
scalar tiger_cost_network.node[3].content_store 	decision_yes[3] 	350
scalar tiger_cost_network.node[3].content_store 	decision_no[3] 	32594
scalar tiger_cost_network.node[3].content_store 	decision_ratio[3] 	0.010624089363769
scalar tiger_cost_network.node[4].core_layer 	interests[4] 	32944
scalar tiger_cost_network.node[4].core_layer 	data[4] 	30655
scalar tiger_cost_network.node[4].content_store 	p_hit[4] 	0.069481544439048
scalar tiger_cost_network.node[4].content_store 	hits[4] 	2289
scalar tiger_cost_network.node[4].content_store 	misses[4] 	30655
scalar tiger_cost_network.node[4].content_store 	decision_yes[4] 	318
scalar tiger_cost_network.node[4].content_store 	decision_no[4] 	30337
scalar tiger_cost_network.node[4].content_store 	decision_ratio[4] 	0.010373511662045
scalar tiger_cost_network.node[5].core_layer 	interests[5] 	0
scalar tiger_cost_network.node[5].core_layer 	data[5] 	0
scalar tiger_cost_network.node[5].content_store 	p_hit[5] 	-nan
scalar tiger_cost_network.node[5].content_store 	hits[5] 	0
scalar tiger_cost_network.node[5].content_store 	misses[5] 	0
scalar tiger_cost_network.node[5].content_store 	decision_yes[5] 	0
scalar tiger_cost_network.node[5].content_store 	decision_no[5] 	0
scalar tiger_cost_network.node[5].content_store 	decision_ratio[5] 	0
scalar tiger_cost_network.node[6].core_layer 	interests[6] 	216947
scalar tiger_cost_network.node[6].core_layer 	data[6] 	156157
scalar tiger_cost_network.node[6].content_store 	p_hit[6] 	0.28019746758425
scalar tiger_cost_network.node[6].content_store 	hits[6] 	60788
scalar tiger_cost_network.node[6].content_store 	misses[6] 	156159
scalar tiger_cost_network.node[6].content_store 	decision_yes[6] 	1572
scalar tiger_cost_network.node[6].content_store 	decision_no[6] 	154585
scalar tiger_cost_network.node[6].content_store 	decision_ratio[6] 	0.010066791754452
scalar tiger_cost_network.node[7].core_layer 	interests[7] 	118306
scalar tiger_cost_network.node[7].core_layer 	data[7] 	106993
scalar tiger_cost_network.node[7].content_store 	p_hit[7] 	0.095624904907612
scalar tiger_cost_network.node[7].content_store 	hits[7] 	11313
scalar tiger_cost_network.node[7].content_store 	misses[7] 	106993
scalar tiger_cost_network.node[7].content_store 	decision_yes[7] 	1115
scalar tiger_cost_network.node[7].content_store 	decision_no[7] 	105878
scalar tiger_cost_network.node[7].content_store 	decision_ratio[7] 	0.010421242511192
scalar tiger_cost_network.node[8].core_layer 	interests[8] 	70118
scalar tiger_cost_network.node[8].core_layer 	data[8] 	65543
scalar tiger_cost_network.node[8].content_store 	p_hit[8] 	0.065247154796201
scalar tiger_cost_network.node[8].content_store 	hits[8] 	4575
scalar tiger_cost_network.node[8].content_store 	misses[8] 	65543
scalar tiger_cost_network.node[8].content_store 	decision_yes[8] 	649
scalar tiger_cost_network.node[8].content_store 	decision_no[8] 	64894
scalar tiger_cost_network.node[8].content_store 	decision_ratio[8] 	0.0099018964649162
scalar tiger_cost_network.node[9].core_layer 	interests[9] 	0
scalar tiger_cost_network.node[9].core_layer 	data[9] 	0
scalar tiger_cost_network.node[9].content_store 	p_hit[9] 	-nan
scalar tiger_cost_network.node[9].content_store 	hits[9] 	0
scalar tiger_cost_network.node[9].content_store 	misses[9] 	0
scalar tiger_cost_network.node[9].content_store 	decision_yes[9] 	0
scalar tiger_cost_network.node[9].content_store 	decision_no[9] 	0
scalar tiger_cost_network.node[9].content_store 	decision_ratio[9] 	0
scalar tiger_cost_network.node[10].core_layer 	interests[10] 	96829
scalar tiger_cost_network.node[10].core_layer 	repo_load[10] 	92532
scalar tiger_cost_network.node[10].core_layer 	data[10] 	0
scalar tiger_cost_network.node[10].content_store 	p_hit[10] 	0.044377201045141
scalar tiger_cost_network.node[10].content_store 	hits[10] 	4297
scalar tiger_cost_network.node[10].content_store 	misses[10] 	92532
scalar tiger_cost_network.node[10].content_store 	decision_yes[10] 	990
scalar tiger_cost_network.node[10].content_store 	decision_no[10] 	91542
scalar tiger_cost_network.node[10].content_store 	decision_ratio[10] 	0.010699001426534
scalar tiger_cost_network.node[11].core_layer 	interests[11] 	0
scalar tiger_cost_network.node[11].core_layer 	data[11] 	0
scalar tiger_cost_network.node[11].content_store 	p_hit[11] 	-nan
scalar tiger_cost_network.node[11].content_store 	hits[11] 	0
scalar tiger_cost_network.node[11].content_store 	misses[11] 	0
scalar tiger_cost_network.node[11].content_store 	decision_yes[11] 	0
scalar tiger_cost_network.node[11].content_store 	decision_no[11] 	0
scalar tiger_cost_network.node[11].content_store 	decision_ratio[11] 	0
scalar tiger_cost_network.node[12].core_layer 	interests[12] 	42775
scalar tiger_cost_network.node[12].core_layer 	data[12] 	36777
scalar tiger_cost_network.node[12].content_store 	p_hit[12] 	0.14022209234366
scalar tiger_cost_network.node[12].content_store 	hits[12] 	5998
scalar tiger_cost_network.node[12].content_store 	misses[12] 	36777
scalar tiger_cost_network.node[12].content_store 	decision_yes[12] 	370
scalar tiger_cost_network.node[12].content_store 	decision_no[12] 	36407
scalar tiger_cost_network.node[12].content_store 	decision_ratio[12] 	0.010060635723414
scalar tiger_cost_network.node[13].core_layer 	interests[13] 	0
scalar tiger_cost_network.node[13].core_layer 	data[13] 	0
scalar tiger_cost_network.node[13].content_store 	p_hit[13] 	-nan
scalar tiger_cost_network.node[13].content_store 	hits[13] 	0
scalar tiger_cost_network.node[13].content_store 	misses[13] 	0
scalar tiger_cost_network.node[13].content_store 	decision_yes[13] 	0
scalar tiger_cost_network.node[13].content_store 	decision_no[13] 	0
scalar tiger_cost_network.node[13].content_store 	decision_ratio[13] 	0
scalar tiger_cost_network.node[14].core_layer 	interests[14] 	0
scalar tiger_cost_network.node[14].core_layer 	data[14] 	0
scalar tiger_cost_network.node[14].content_store 	p_hit[14] 	-nan
scalar tiger_cost_network.node[14].content_store 	hits[14] 	0
scalar tiger_cost_network.node[14].content_store 	misses[14] 	0
scalar tiger_cost_network.node[14].content_store 	decision_yes[14] 	0
scalar tiger_cost_network.node[14].content_store 	decision_no[14] 	0
scalar tiger_cost_network.node[14].content_store 	decision_ratio[14] 	0
scalar tiger_cost_network.node[15].core_layer 	interests[15] 	0
scalar tiger_cost_network.node[15].core_layer 	data[15] 	0
scalar tiger_cost_network.node[15].content_store 	p_hit[15] 	-nan
scalar tiger_cost_network.node[15].content_store 	hits[15] 	0
scalar tiger_cost_network.node[15].content_store 	misses[15] 	0
scalar tiger_cost_network.node[15].content_store 	decision_yes[15] 	0
scalar tiger_cost_network.node[15].content_store 	decision_no[15] 	0
scalar tiger_cost_network.node[15].content_store 	decision_ratio[15] 	0
scalar tiger_cost_network.node[16].core_layer 	interests[16] 	104324
scalar tiger_cost_network.node[16].core_layer 	repo_load[16] 	94737
scalar tiger_cost_network.node[16].core_layer 	data[16] 	0
scalar tiger_cost_network.node[16].content_store 	p_hit[16] 	0.091896399677926
scalar tiger_cost_network.node[16].content_store 	hits[16] 	9587
scalar tiger_cost_network.node[16].content_store 	misses[16] 	94737
scalar tiger_cost_network.node[16].content_store 	decision_yes[16] 	993
scalar tiger_cost_network.node[16].content_store 	decision_no[16] 	93744
scalar tiger_cost_network.node[16].content_store 	decision_ratio[16] 	0.010481649197251
scalar tiger_cost_network.node[17].core_layer 	interests[17] 	42167
scalar tiger_cost_network.node[17].core_layer 	data[17] 	36545
scalar tiger_cost_network.node[17].content_store 	p_hit[17] 	0.13332700927265
scalar tiger_cost_network.node[17].content_store 	hits[17] 	5622
scalar tiger_cost_network.node[17].content_store 	misses[17] 	36545
scalar tiger_cost_network.node[17].content_store 	decision_yes[17] 	370
scalar tiger_cost_network.node[17].content_store 	decision_no[17] 	36175
scalar tiger_cost_network.node[17].content_store 	decision_ratio[17] 	0.01012450403612
scalar tiger_cost_network.node[18].core_layer 	interests[18] 	112668
scalar tiger_cost_network.node[18].core_layer 	repo_load[18] 	103817
scalar tiger_cost_network.node[18].core_layer 	data[18] 	0
scalar tiger_cost_network.node[18].content_store 	p_hit[18] 	0.078558241914297
scalar tiger_cost_network.node[18].content_store 	hits[18] 	8851
scalar tiger_cost_network.node[18].content_store 	misses[18] 	103817
scalar tiger_cost_network.node[18].content_store 	decision_yes[18] 	1048
scalar tiger_cost_network.node[18].content_store 	decision_no[18] 	102769
scalar tiger_cost_network.node[18].content_store 	decision_ratio[18] 	0.010094685841433
scalar tiger_cost_network.node[19].core_layer 	interests[19] 	0
scalar tiger_cost_network.node[19].core_layer 	data[19] 	0
scalar tiger_cost_network.node[19].content_store 	p_hit[19] 	-nan
scalar tiger_cost_network.node[19].content_store 	hits[19] 	0
scalar tiger_cost_network.node[19].content_store 	misses[19] 	0
scalar tiger_cost_network.node[19].content_store 	decision_yes[19] 	0
scalar tiger_cost_network.node[19].content_store 	decision_no[19] 	0
scalar tiger_cost_network.node[19].content_store 	decision_ratio[19] 	0
scalar tiger_cost_network.node[20].core_layer 	interests[20] 	180033
scalar tiger_cost_network.node[20].core_layer 	data[20] 	120503
scalar tiger_cost_network.node[20].content_store 	p_hit[20] 	0.33065049185427
scalar tiger_cost_network.node[20].content_store 	hits[20] 	59528
scalar tiger_cost_network.node[20].content_store 	misses[20] 	120505
scalar tiger_cost_network.node[20].content_store 	decision_yes[20] 	1223
scalar tiger_cost_network.node[20].content_store 	decision_no[20] 	119280
scalar tiger_cost_network.node[20].content_store 	decision_ratio[20] 	0.010149124918052
scalar tiger_cost_network.node[21].core_layer 	interests[21] 	0
scalar tiger_cost_network.node[21].core_layer 	data[21] 	0
scalar tiger_cost_network.node[21].content_store 	p_hit[21] 	-nan
scalar tiger_cost_network.node[21].content_store 	hits[21] 	0
scalar tiger_cost_network.node[21].content_store 	misses[21] 	0
scalar tiger_cost_network.node[21].content_store 	decision_yes[21] 	0
scalar tiger_cost_network.node[21].content_store 	decision_no[21] 	0
scalar tiger_cost_network.node[21].content_store 	decision_ratio[21] 	0
scalar tiger_cost_network.client[2] 	hdistance[2] 	2.127542370526
scalar tiger_cost_network.client[2] 	downloads[2] 	179901
scalar tiger_cost_network.client[2] 	avg_time[2] 	0.000886881801
scalar tiger_cost_network.client[6] 	hdistance[6] 	1.9719277396138
scalar tiger_cost_network.client[6] 	downloads[6] 	180071
scalar tiger_cost_network.client[6] 	avg_time[6] 	0.000535302038
scalar tiger_cost_network.client[20] 	hdistance[20] 	2.1669323616488
scalar tiger_cost_network.client[20] 	downloads[20] 	180031
scalar tiger_cost_network.client[20] 	avg_time[20] 	0.000546184003
