version 2
run General-14-20140930-19:35:36-29400
attr D fix0.01
attr F spr
attr R lru
attr a 1
attr configname General
attr csize 1e3
attr ctlg 1e5
attr datetime 20140930-19:35:36
attr experiment General
attr inifile omnetpp.ini
attr iterationvars "$net=tiger_cost, $rep=12, $priceratiovalue=10, $weights=0.333_0.333_0.334, $lambda=100, $a=1, $ctlg=1e5, $F=spr, $ttl=10, $D=fix0.01, $xi=1, $R=lru, $csize=1e3, $pricebits=0, $window=60, $variance=0.05, $mytime=1800"
attr iterationvars2 "$net=tiger_cost, $rep=12, $priceratiovalue=10, $weights=0.333_0.333_0.334, $lambda=100, $a=1, $ctlg=1e5, $F=spr, $ttl=10, $D=fix0.01, $xi=1, $R=lru, $csize=1e3, $pricebits=0, $window=60, $variance=0.05, $mytime=1800, $repetition=0"
attr lambda 100
attr measurement "$net=tiger_cost, $rep=12, $priceratiovalue=10, $weights=0.333_0.333_0.334, $lambda=100, $a=1, $ctlg=1e5, $F=spr, $ttl=10, $D=fix0.01, $xi=1, $R=lru, $csize=1e3, $pricebits=0, $window=60, $variance=0.05, $mytime=1800"
attr mytime 1800
attr net tiger_cost
attr network networks.${net=tiger_cost,dtelecom_cost}_network
attr pricebits 0
attr priceratiovalue 10
attr processid 29400
attr rep 12
attr repetition 0
attr replication #0
attr resultdir results
attr runnumber 14
attr seedset 12
attr ttl 10
attr variance 0.05
attr weights 0.333_0.333_0.334
attr window 60
attr xi 1

scalar . 	a 	1
scalar . 	csize 	1e3
scalar . 	ctlg 	1e5
scalar . 	lambda 	100
scalar . 	mytime 	1800
scalar . 	pricebits 	0
scalar . 	priceratiovalue 	10
scalar . 	rep 	12
scalar . 	ttl 	10
scalar . 	variance 	0.05
scalar . 	window 	60
scalar . 	xi 	1
scalar tiger_cost_network.content_distribution 	repo-0 	15
scalar tiger_cost_network.content_distribution 	repo-1 	11
scalar tiger_cost_network.content_distribution 	repo-2 	12
scalar tiger_cost_network.content_distribution 	client-0 	21
scalar tiger_cost_network.content_distribution 	client-1 	3
scalar tiger_cost_network.content_distribution 	client-2 	10
scalar tiger_cost_network.content_distribution 	repo-0_card 	33377
scalar tiger_cost_network.content_distribution 	repo-0_price 	1
scalar tiger_cost_network.content_distribution 	repo-1_card 	33438
scalar tiger_cost_network.content_distribution 	repo-1_price 	10
scalar tiger_cost_network.content_distribution 	repo-2_card 	33185
scalar tiger_cost_network.content_distribution 	repo-2_price 	0
scalar tiger_cost_network.statistics 	repo_popularity[0] 	0.39206413854294
scalar tiger_cost_network.statistics 	repo_popularity[1] 	0.32380036391025
scalar tiger_cost_network.statistics 	repo_popularity[2] 	0.28413549754682
scalar tiger_cost_network.statistics 	stabilization_time 	36060
scalar tiger_cost_network.statistics 	p_hit 	0.16576781430291
scalar tiger_cost_network.statistics 	interests 	65007.136363636
scalar tiger_cost_network.statistics 	data 	40472.227272727
scalar tiger_cost_network.statistics 	hdistance 	2.2116988346186
scalar tiger_cost_network.statistics 	avg_time 	0.000536185396
scalar tiger_cost_network.statistics 	downloads 	539763
scalar tiger_cost_network.statistics 	total_cost 	1162206
scalar tiger_cost_network.statistics 	total_replicas 	100000
scalar tiger_cost_network.statistics 	inner_hit 	0.43922425212547
scalar tiger_cost_network.node[0].core_layer 	interests[0] 	74687
scalar tiger_cost_network.node[0].core_layer 	data[0] 	70685
scalar tiger_cost_network.node[0].core_layer 	repo_int[0] 	302686
scalar tiger_cost_network.node[0].content_store 	p_hit[0] 	0.053583622317137
scalar tiger_cost_network.node[0].content_store 	hits[0] 	4002
scalar tiger_cost_network.node[0].content_store 	misses[0] 	70685
scalar tiger_cost_network.node[0].content_store 	decision_yes[0] 	649
scalar tiger_cost_network.node[0].content_store 	decision_no[0] 	70036
scalar tiger_cost_network.node[0].content_store 	decision_ratio[0] 	0.0091815802504067
scalar tiger_cost_network.node[1].core_layer 	interests[1] 	72907
scalar tiger_cost_network.node[1].core_layer 	data[1] 	65847
scalar tiger_cost_network.node[1].content_store 	p_hit[1] 	0.096821978685174
scalar tiger_cost_network.node[1].content_store 	hits[1] 	7059
scalar tiger_cost_network.node[1].content_store 	misses[1] 	65848
scalar tiger_cost_network.node[1].content_store 	decision_yes[1] 	668
scalar tiger_cost_network.node[1].content_store 	decision_no[1] 	65179
scalar tiger_cost_network.node[1].content_store 	decision_ratio[1] 	0.01014472944857
scalar tiger_cost_network.node[2].core_layer 	interests[2] 	149102
scalar tiger_cost_network.node[2].core_layer 	data[2] 	142063
scalar tiger_cost_network.node[2].content_store 	p_hit[2] 	0.04720929296723
scalar tiger_cost_network.node[2].content_store 	hits[2] 	7039
scalar tiger_cost_network.node[2].content_store 	misses[2] 	142063
scalar tiger_cost_network.node[2].content_store 	decision_yes[2] 	1407
scalar tiger_cost_network.node[2].content_store 	decision_no[2] 	140656
scalar tiger_cost_network.node[2].content_store 	decision_ratio[2] 	0.0099040566509225
scalar tiger_cost_network.node[3].core_layer 	interests[3] 	244619
scalar tiger_cost_network.node[3].core_layer 	data[3] 	185543
scalar tiger_cost_network.node[3].content_store 	p_hit[3] 	0.24149391502704
scalar tiger_cost_network.node[3].content_store 	hits[3] 	59074
scalar tiger_cost_network.node[3].content_store 	misses[3] 	185545
scalar tiger_cost_network.node[3].content_store 	decision_yes[3] 	1881
scalar tiger_cost_network.node[3].content_store 	decision_no[3] 	183662
scalar tiger_cost_network.node[3].content_store 	decision_ratio[3] 	0.010137811720194
scalar tiger_cost_network.node[4].core_layer 	interests[4] 	0
scalar tiger_cost_network.node[4].core_layer 	data[4] 	0
scalar tiger_cost_network.node[4].content_store 	p_hit[4] 	-nan
scalar tiger_cost_network.node[4].content_store 	hits[4] 	0
scalar tiger_cost_network.node[4].content_store 	misses[4] 	0
scalar tiger_cost_network.node[4].content_store 	decision_yes[4] 	0
scalar tiger_cost_network.node[4].content_store 	decision_no[4] 	0
scalar tiger_cost_network.node[4].content_store 	decision_ratio[4] 	0
scalar tiger_cost_network.node[5].core_layer 	interests[5] 	0
scalar tiger_cost_network.node[5].core_layer 	data[5] 	0
scalar tiger_cost_network.node[5].content_store 	p_hit[5] 	-nan
scalar tiger_cost_network.node[5].content_store 	hits[5] 	0
scalar tiger_cost_network.node[5].content_store 	misses[5] 	0
scalar tiger_cost_network.node[5].content_store 	decision_yes[5] 	0
scalar tiger_cost_network.node[5].content_store 	decision_no[5] 	0
scalar tiger_cost_network.node[5].content_store 	decision_ratio[5] 	0
scalar tiger_cost_network.node[6].core_layer 	interests[6] 	0
scalar tiger_cost_network.node[6].core_layer 	data[6] 	0
scalar tiger_cost_network.node[6].content_store 	p_hit[6] 	-nan
scalar tiger_cost_network.node[6].content_store 	hits[6] 	0
scalar tiger_cost_network.node[6].content_store 	misses[6] 	0
scalar tiger_cost_network.node[6].content_store 	decision_yes[6] 	0
scalar tiger_cost_network.node[6].content_store 	decision_no[6] 	0
scalar tiger_cost_network.node[6].content_store 	decision_ratio[6] 	0
scalar tiger_cost_network.node[7].core_layer 	interests[7] 	0
scalar tiger_cost_network.node[7].core_layer 	data[7] 	0
scalar tiger_cost_network.node[7].content_store 	p_hit[7] 	-nan
scalar tiger_cost_network.node[7].content_store 	hits[7] 	0
scalar tiger_cost_network.node[7].content_store 	misses[7] 	0
scalar tiger_cost_network.node[7].content_store 	decision_yes[7] 	0
scalar tiger_cost_network.node[7].content_store 	decision_no[7] 	0
scalar tiger_cost_network.node[7].content_store 	decision_ratio[7] 	0
scalar tiger_cost_network.node[8].core_layer 	interests[8] 	38909
scalar tiger_cost_network.node[8].core_layer 	data[8] 	34043
scalar tiger_cost_network.node[8].content_store 	p_hit[8] 	0.12506103986224
scalar tiger_cost_network.node[8].content_store 	hits[8] 	4866
scalar tiger_cost_network.node[8].content_store 	misses[8] 	34043
scalar tiger_cost_network.node[8].content_store 	decision_yes[8] 	350
scalar tiger_cost_network.node[8].content_store 	decision_no[8] 	33693
scalar tiger_cost_network.node[8].content_store 	decision_ratio[8] 	0.010281115060365
scalar tiger_cost_network.node[9].core_layer 	interests[9] 	0
scalar tiger_cost_network.node[9].core_layer 	data[9] 	0
scalar tiger_cost_network.node[9].content_store 	p_hit[9] 	-nan
scalar tiger_cost_network.node[9].content_store 	hits[9] 	0
scalar tiger_cost_network.node[9].content_store 	misses[9] 	0
scalar tiger_cost_network.node[9].content_store 	decision_yes[9] 	0
scalar tiger_cost_network.node[9].content_store 	decision_no[9] 	0
scalar tiger_cost_network.node[9].content_store 	decision_ratio[9] 	0
scalar tiger_cost_network.node[10].core_layer 	interests[10] 	180592
scalar tiger_cost_network.node[10].core_layer 	data[10] 	120310
scalar tiger_cost_network.node[10].content_store 	p_hit[10] 	0.33379108709134
scalar tiger_cost_network.node[10].content_store 	hits[10] 	60280
scalar tiger_cost_network.node[10].content_store 	misses[10] 	120312
scalar tiger_cost_network.node[10].content_store 	decision_yes[10] 	1247
scalar tiger_cost_network.node[10].content_store 	decision_no[10] 	119063
scalar tiger_cost_network.node[10].content_store 	decision_ratio[10] 	0.010364890699028
scalar tiger_cost_network.node[11].core_layer 	interests[11] 	156919
scalar tiger_cost_network.node[11].core_layer 	repo_load[11] 	106609
scalar tiger_cost_network.node[11].core_layer 	data[11] 	38307
scalar tiger_cost_network.node[11].content_store 	p_hit[11] 	0.076491693166538
scalar tiger_cost_network.node[11].content_store 	hits[11] 	12003
scalar tiger_cost_network.node[11].content_store 	misses[11] 	144916
scalar tiger_cost_network.node[11].content_store 	decision_yes[11] 	1515
scalar tiger_cost_network.node[11].content_store 	decision_no[11] 	143401
scalar tiger_cost_network.node[11].content_store 	decision_ratio[11] 	0.01045433216484
scalar tiger_cost_network.node[12].core_layer 	interests[12] 	150120
scalar tiger_cost_network.node[12].core_layer 	repo_load[12] 	99961
scalar tiger_cost_network.node[12].core_layer 	data[12] 	38955
scalar tiger_cost_network.node[12].content_store 	p_hit[12] 	0.074633626432188
scalar tiger_cost_network.node[12].content_store 	hits[12] 	11204
scalar tiger_cost_network.node[12].content_store 	misses[12] 	138916
scalar tiger_cost_network.node[12].content_store 	decision_yes[12] 	1371
scalar tiger_cost_network.node[12].content_store 	decision_no[12] 	137545
scalar tiger_cost_network.node[12].content_store 	decision_ratio[12] 	0.0098692735178093
scalar tiger_cost_network.node[13].core_layer 	interests[13] 	0
scalar tiger_cost_network.node[13].core_layer 	data[13] 	0
scalar tiger_cost_network.node[13].content_store 	p_hit[13] 	-nan
scalar tiger_cost_network.node[13].content_store 	hits[13] 	0
scalar tiger_cost_network.node[13].content_store 	misses[13] 	0
scalar tiger_cost_network.node[13].content_store 	decision_yes[13] 	0
scalar tiger_cost_network.node[13].content_store 	decision_no[13] 	0
scalar tiger_cost_network.node[13].content_store 	decision_ratio[13] 	0
scalar tiger_cost_network.node[14].core_layer 	interests[14] 	0
scalar tiger_cost_network.node[14].core_layer 	data[14] 	0
scalar tiger_cost_network.node[14].content_store 	p_hit[14] 	-nan
scalar tiger_cost_network.node[14].content_store 	hits[14] 	0
scalar tiger_cost_network.node[14].content_store 	misses[14] 	0
scalar tiger_cost_network.node[14].content_store 	decision_yes[14] 	0
scalar tiger_cost_network.node[14].content_store 	decision_no[14] 	0
scalar tiger_cost_network.node[14].content_store 	decision_ratio[14] 	0
scalar tiger_cost_network.node[15].core_layer 	interests[15] 	102287
scalar tiger_cost_network.node[15].core_layer 	repo_load[15] 	96116
scalar tiger_cost_network.node[15].core_layer 	data[15] 	0
scalar tiger_cost_network.node[15].content_store 	p_hit[15] 	0.060330247245496
scalar tiger_cost_network.node[15].content_store 	hits[15] 	6171
scalar tiger_cost_network.node[15].content_store 	misses[15] 	96116
scalar tiger_cost_network.node[15].content_store 	decision_yes[15] 	982
scalar tiger_cost_network.node[15].content_store 	decision_no[15] 	95134
scalar tiger_cost_network.node[15].content_store 	decision_ratio[15] 	0.01021682134088
scalar tiger_cost_network.node[16].core_layer 	interests[16] 	0
scalar tiger_cost_network.node[16].core_layer 	data[16] 	0
scalar tiger_cost_network.node[16].content_store 	p_hit[16] 	-nan
scalar tiger_cost_network.node[16].content_store 	hits[16] 	0
scalar tiger_cost_network.node[16].content_store 	misses[16] 	0
scalar tiger_cost_network.node[16].content_store 	decision_yes[16] 	0
scalar tiger_cost_network.node[16].content_store 	decision_no[16] 	0
scalar tiger_cost_network.node[16].content_store 	decision_ratio[16] 	0
scalar tiger_cost_network.node[17].core_layer 	interests[17] 	0
scalar tiger_cost_network.node[17].core_layer 	data[17] 	0
scalar tiger_cost_network.node[17].content_store 	p_hit[17] 	-nan
scalar tiger_cost_network.node[17].content_store 	hits[17] 	0
scalar tiger_cost_network.node[17].content_store 	misses[17] 	0
scalar tiger_cost_network.node[17].content_store 	decision_yes[17] 	0
scalar tiger_cost_network.node[17].content_store 	decision_no[17] 	0
scalar tiger_cost_network.node[17].content_store 	decision_ratio[17] 	0
scalar tiger_cost_network.node[18].core_layer 	interests[18] 	0
scalar tiger_cost_network.node[18].core_layer 	data[18] 	0
scalar tiger_cost_network.node[18].content_store 	p_hit[18] 	-nan
scalar tiger_cost_network.node[18].content_store 	hits[18] 	0
scalar tiger_cost_network.node[18].content_store 	misses[18] 	0
scalar tiger_cost_network.node[18].content_store 	decision_yes[18] 	0
scalar tiger_cost_network.node[18].content_store 	decision_no[18] 	0
scalar tiger_cost_network.node[18].content_store 	decision_ratio[18] 	0
scalar tiger_cost_network.node[19].core_layer 	interests[19] 	81040
scalar tiger_cost_network.node[19].core_layer 	data[19] 	74687
scalar tiger_cost_network.node[19].content_store 	p_hit[19] 	0.078393385982231
scalar tiger_cost_network.node[19].content_store 	hits[19] 	6353
scalar tiger_cost_network.node[19].content_store 	misses[19] 	74687
scalar tiger_cost_network.node[19].content_store 	decision_yes[19] 	758
scalar tiger_cost_network.node[19].content_store 	decision_no[19] 	73929
scalar tiger_cost_network.node[19].content_store 	decision_ratio[19] 	0.010149021918138
scalar tiger_cost_network.node[20].core_layer 	interests[20] 	0
scalar tiger_cost_network.node[20].core_layer 	data[20] 	0
scalar tiger_cost_network.node[20].content_store 	p_hit[20] 	-nan
scalar tiger_cost_network.node[20].content_store 	hits[20] 	0
scalar tiger_cost_network.node[20].content_store 	misses[20] 	0
scalar tiger_cost_network.node[20].content_store 	decision_yes[20] 	0
scalar tiger_cost_network.node[20].content_store 	decision_no[20] 	0
scalar tiger_cost_network.node[20].content_store 	decision_ratio[20] 	0
scalar tiger_cost_network.node[21].core_layer 	interests[21] 	178975
scalar tiger_cost_network.node[21].core_layer 	data[21] 	119949
scalar tiger_cost_network.node[21].content_store 	p_hit[21] 	0.32978348931415
scalar tiger_cost_network.node[21].content_store 	hits[21] 	59023
scalar tiger_cost_network.node[21].content_store 	misses[21] 	119952
scalar tiger_cost_network.node[21].content_store 	decision_yes[21] 	1229
scalar tiger_cost_network.node[21].content_store 	decision_no[21] 	118720
scalar tiger_cost_network.node[21].content_store 	decision_ratio[21] 	0.010246021225688
scalar tiger_cost_network.client[3] 	hdistance[3] 	1.9061103989434
scalar tiger_cost_network.client[3] 	downloads[3] 	180201
scalar tiger_cost_network.client[3] 	avg_time[3] 	0.000554037045
scalar tiger_cost_network.client[10] 	hdistance[10] 	2.0042638019825
scalar tiger_cost_network.client[10] 	downloads[10] 	180590
scalar tiger_cost_network.client[10] 	avg_time[10] 	0.000372142472
scalar tiger_cost_network.client[21] 	hdistance[21] 	2.7247223029301
scalar tiger_cost_network.client[21] 	downloads[21] 	178972
scalar tiger_cost_network.client[21] 	avg_time[21] 	0.000682376673
