version 2
run General-406-20140511-15:17:00-13063
attr D costprobprodcorr0.01
attr F nrr
attr R lru
attr a 1
attr configname General
attr csize 1e3
attr ctlg 1e5
attr datetime 20140511-15:17:00
attr experiment General
attr inifile omnetpp.ini
attr iterationvars "$net=one_cache_scenario_3_links, $rep=7, $priceratiovalue=10, $weights=0.333_0.333_0.334, $a=1, $ctlg=1e5, $F=nrr, $ttl=1000, $D=costprobprodcorr0.01, $xi=0.25, $R=lru, $csize=1e3"
attr iterationvars2 "$net=one_cache_scenario_3_links, $rep=7, $priceratiovalue=10, $weights=0.333_0.333_0.334, $a=1, $ctlg=1e5, $F=nrr, $ttl=1000, $D=costprobprodcorr0.01, $xi=0.25, $R=lru, $csize=1e3, $repetition=0"
attr measurement "$net=one_cache_scenario_3_links, $rep=7, $priceratiovalue=10, $weights=0.333_0.333_0.334, $a=1, $ctlg=1e5, $F=nrr, $ttl=1000, $D=costprobprodcorr0.01, $xi=0.25, $R=lru, $csize=1e3"
attr net one_cache_scenario_3_links
attr network networks.${net=one_cache_scenario_3_links}_network
attr priceratiovalue 10
attr processid 13063
attr rep 7
attr repetition 0
attr replication #0
attr resultdir results
attr runnumber 406
attr seedset 7
attr ttl 1000
attr weights 0.333_0.333_0.334
attr xi 0.25

scalar . 	a 	1
scalar . 	csize 	1e3
scalar . 	ctlg 	1e5
scalar . 	priceratiovalue 	10
scalar . 	rep 	7
scalar . 	ttl 	1000
scalar . 	xi 	0.25
scalar one_cache_scenario_3_links_network.content_distribution 	repo-0 	4
scalar one_cache_scenario_3_links_network.content_distribution 	repo-1 	5
scalar one_cache_scenario_3_links_network.content_distribution 	repo-2 	6
scalar one_cache_scenario_3_links_network.content_distribution 	client-0 	0
scalar one_cache_scenario_3_links_network.content_distribution 	repo-0_card 	33104
scalar one_cache_scenario_3_links_network.content_distribution 	repo-1_card 	33508
scalar one_cache_scenario_3_links_network.content_distribution 	repo-2_card 	33388
scalar one_cache_scenario_3_links_network.statistics 	p_hit 	0.15970267910706
scalar one_cache_scenario_3_links_network.statistics 	interests 	58580.285714286
scalar one_cache_scenario_3_links_network.statistics 	data 	32816.571428571
scalar one_cache_scenario_3_links_network.statistics 	hdistance 	1.2737515664334
scalar one_cache_scenario_3_links_network.statistics 	avg_time 	0
scalar one_cache_scenario_3_links_network.statistics 	downloads 	180346
scalar one_cache_scenario_3_links_network.statistics 	total_cost 	271335
scalar one_cache_scenario_3_links_network.statistics 	total_replicas 	100000
scalar one_cache_scenario_3_links_network.statistics 	interests_sent 	180346
scalar one_cache_scenario_3_links_network.node[0].core_layer 	interests[0] 	180346
scalar one_cache_scenario_3_links_network.node[0].core_layer 	data[0] 	114858
scalar one_cache_scenario_3_links_network.node[0].core_layer 	repo_int[0] 	114858
scalar one_cache_scenario_3_links_network.node[0].content_store 	p_hit[0] 	0.36312421678329
scalar one_cache_scenario_3_links_network.node[0].content_store 	hits[0] 	65488
scalar one_cache_scenario_3_links_network.node[0].content_store 	misses[0] 	114858
scalar one_cache_scenario_3_links_network.node[0].content_store 	decision_yes[0] 	746
scalar one_cache_scenario_3_links_network.node[0].content_store 	decision_no[0] 	114112
scalar one_cache_scenario_3_links_network.node[0].content_store 	decision_ratio[0] 	0.0064949764056487
scalar one_cache_scenario_3_links_network.node[0].content_store 	correction_factor[0] 	0.010788122829233
scalar one_cache_scenario_3_links_network.node[0].content_store 	xi[0] 	0.25
scalar one_cache_scenario_3_links_network.node[1].core_layer 	interests[1] 	62286
scalar one_cache_scenario_3_links_network.node[1].core_layer 	data[1] 	62286
scalar one_cache_scenario_3_links_network.node[1].content_store 	p_hit[1] 	0
scalar one_cache_scenario_3_links_network.node[1].content_store 	hits[1] 	0
scalar one_cache_scenario_3_links_network.node[1].content_store 	misses[1] 	62286
scalar one_cache_scenario_3_links_network.node[1].content_store 	decision_yes[1] 	0
scalar one_cache_scenario_3_links_network.node[1].content_store 	decision_no[1] 	62286
scalar one_cache_scenario_3_links_network.node[1].content_store 	decision_ratio[1] 	0
scalar one_cache_scenario_3_links_network.node[2].core_layer 	interests[2] 	28265
scalar one_cache_scenario_3_links_network.node[2].core_layer 	data[2] 	28265
scalar one_cache_scenario_3_links_network.node[2].content_store 	p_hit[2] 	0
scalar one_cache_scenario_3_links_network.node[2].content_store 	hits[2] 	0
scalar one_cache_scenario_3_links_network.node[2].content_store 	misses[2] 	28265
scalar one_cache_scenario_3_links_network.node[2].content_store 	decision_yes[2] 	0
scalar one_cache_scenario_3_links_network.node[2].content_store 	decision_no[2] 	28265
scalar one_cache_scenario_3_links_network.node[2].content_store 	decision_ratio[2] 	0
scalar one_cache_scenario_3_links_network.node[3].core_layer 	interests[3] 	24307
scalar one_cache_scenario_3_links_network.node[3].core_layer 	data[3] 	24307
scalar one_cache_scenario_3_links_network.node[3].content_store 	p_hit[3] 	0
scalar one_cache_scenario_3_links_network.node[3].content_store 	hits[3] 	0
scalar one_cache_scenario_3_links_network.node[3].content_store 	misses[3] 	24307
scalar one_cache_scenario_3_links_network.node[3].content_store 	decision_yes[3] 	0
scalar one_cache_scenario_3_links_network.node[3].content_store 	decision_no[3] 	24307
scalar one_cache_scenario_3_links_network.node[3].content_store 	decision_ratio[3] 	0
scalar one_cache_scenario_3_links_network.node[4].core_layer 	interests[4] 	62286
scalar one_cache_scenario_3_links_network.node[4].core_layer 	repo_load[4] 	62286
scalar one_cache_scenario_3_links_network.node[4].core_layer 	data[4] 	0
scalar one_cache_scenario_3_links_network.node[4].content_store 	p_hit[4] 	0
scalar one_cache_scenario_3_links_network.node[4].content_store 	hits[4] 	0
scalar one_cache_scenario_3_links_network.node[4].content_store 	misses[4] 	62286
scalar one_cache_scenario_3_links_network.node[4].content_store 	decision_yes[4] 	0
scalar one_cache_scenario_3_links_network.node[4].content_store 	decision_no[4] 	62286
scalar one_cache_scenario_3_links_network.node[4].content_store 	decision_ratio[4] 	0
scalar one_cache_scenario_3_links_network.node[5].core_layer 	interests[5] 	28265
scalar one_cache_scenario_3_links_network.node[5].core_layer 	repo_load[5] 	28265
scalar one_cache_scenario_3_links_network.node[5].core_layer 	data[5] 	0
scalar one_cache_scenario_3_links_network.node[5].content_store 	p_hit[5] 	0
scalar one_cache_scenario_3_links_network.node[5].content_store 	hits[5] 	0
scalar one_cache_scenario_3_links_network.node[5].content_store 	misses[5] 	28265
scalar one_cache_scenario_3_links_network.node[5].content_store 	decision_yes[5] 	0
scalar one_cache_scenario_3_links_network.node[5].content_store 	decision_no[5] 	28265
scalar one_cache_scenario_3_links_network.node[5].content_store 	decision_ratio[5] 	0
scalar one_cache_scenario_3_links_network.node[6].core_layer 	interests[6] 	24307
scalar one_cache_scenario_3_links_network.node[6].core_layer 	repo_load[6] 	24307
scalar one_cache_scenario_3_links_network.node[6].core_layer 	data[6] 	0
scalar one_cache_scenario_3_links_network.node[6].content_store 	p_hit[6] 	0
scalar one_cache_scenario_3_links_network.node[6].content_store 	hits[6] 	0
scalar one_cache_scenario_3_links_network.node[6].content_store 	misses[6] 	24307
scalar one_cache_scenario_3_links_network.node[6].content_store 	decision_yes[6] 	0
scalar one_cache_scenario_3_links_network.node[6].content_store 	decision_no[6] 	24307
scalar one_cache_scenario_3_links_network.node[6].content_store 	decision_ratio[6] 	0
scalar one_cache_scenario_3_links_network.client[0] 	hdistance[0] 	1.2737515664334
scalar one_cache_scenario_3_links_network.client[0] 	downloads[0] 	180346
scalar one_cache_scenario_3_links_network.client[0] 	avg_time[0] 	0
scalar one_cache_scenario_3_links_network.client[0] 	interests_sent[0] 	180346
