version 2
run General-3-20150717-20:11:28-11677
attr C 1e4
attr D lce
attr F spr
attr R always_highq
attr a 1
attr brates 0.3_0.7_1.5_2.5_3.5
attr configname General
attr ctlg 1e6
attr datetime 20150717-20:11:28
attr experiment General
attr inifile omnetpp.ini
attr iterationvars "$net=abilene_nodelay, $rep=0, $lambda=100, $a=1, $ctlg=1e6, $brates=0.3_0.7_1.5_2.5_3.5, $F=spr, $ttl=1000, $D=lce, $R=always_highq, $C=1e4, $window=60, $variance=0.05, $mytime=180"
attr iterationvars2 "$net=abilene_nodelay, $rep=0, $lambda=100, $a=1, $ctlg=1e6, $brates=0.3_0.7_1.5_2.5_3.5, $F=spr, $ttl=1000, $D=lce, $R=always_highq, $C=1e4, $window=60, $variance=0.05, $mytime=180, $repetition=0"
attr lambda 100
attr measurement "$net=abilene_nodelay, $rep=0, $lambda=100, $a=1, $ctlg=1e6, $brates=0.3_0.7_1.5_2.5_3.5, $F=spr, $ttl=1000, $D=lce, $R=always_highq, $C=1e4, $window=60, $variance=0.05, $mytime=180"
attr mytime 180
attr net abilene_nodelay
attr network networks.${net=abilene_nodelay}_network
attr processid 11677
attr rep 0
attr repetition 0
attr replication #0
attr resultdir results
attr runnumber 3
attr seedset 0
attr ttl 1000
attr variance 0.05
attr window 60

scalar . 	C 	1e4
scalar . 	a 	1
scalar . 	ctlg 	1e6
scalar . 	lambda 	100
scalar . 	mytime 	180
scalar . 	rep 	0
scalar . 	ttl 	1000
scalar . 	variance 	0.05
scalar . 	window 	60
scalar abilene_nodelay_network.content_distribution 	repo-0 	5
scalar abilene_nodelay_network.content_distribution 	repo-1 	8
scalar abilene_nodelay_network.content_distribution 	repo-2 	9
scalar abilene_nodelay_network.content_distribution 	repo-3 	0
scalar abilene_nodelay_network.content_distribution 	repo-4 	1
scalar abilene_nodelay_network.content_distribution 	repo-5 	7
scalar abilene_nodelay_network.content_distribution 	repo-6 	6
scalar abilene_nodelay_network.content_distribution 	repo-7 	2
scalar abilene_nodelay_network.content_distribution 	repo-8 	4
scalar abilene_nodelay_network.content_distribution 	repo-9 	10
scalar abilene_nodelay_network.content_distribution 	repo-10 	3
scalar abilene_nodelay_network.content_distribution 	client-0 	10
scalar abilene_nodelay_network.content_distribution 	client-1 	9
scalar abilene_nodelay_network.content_distribution 	client-2 	8
scalar abilene_nodelay_network.content_distribution 	client-3 	7
scalar abilene_nodelay_network.content_distribution 	client-4 	3
scalar abilene_nodelay_network.content_distribution 	client-5 	6
scalar abilene_nodelay_network.content_distribution 	client-6 	5
scalar abilene_nodelay_network.content_distribution 	client-7 	1
scalar abilene_nodelay_network.content_distribution 	client-8 	4
scalar abilene_nodelay_network.content_distribution 	client-9 	0
scalar abilene_nodelay_network.content_distribution 	client-10 	2
scalar abilene_nodelay_network.content_distribution 	repo-0_card 	90891
scalar abilene_nodelay_network.content_distribution 	repo-0_price 	0
scalar abilene_nodelay_network.content_distribution 	repo-1_card 	90362
scalar abilene_nodelay_network.content_distribution 	repo-1_price 	0
scalar abilene_nodelay_network.content_distribution 	repo-2_card 	90927
scalar abilene_nodelay_network.content_distribution 	repo-2_price 	0
scalar abilene_nodelay_network.content_distribution 	repo-3_card 	91098
scalar abilene_nodelay_network.content_distribution 	repo-3_price 	0
scalar abilene_nodelay_network.content_distribution 	repo-4_card 	91231
scalar abilene_nodelay_network.content_distribution 	repo-4_price 	0
scalar abilene_nodelay_network.content_distribution 	repo-5_card 	90932
scalar abilene_nodelay_network.content_distribution 	repo-5_price 	0
scalar abilene_nodelay_network.content_distribution 	repo-6_card 	90752
scalar abilene_nodelay_network.content_distribution 	repo-6_price 	0
scalar abilene_nodelay_network.content_distribution 	repo-7_card 	90980
scalar abilene_nodelay_network.content_distribution 	repo-7_price 	0
scalar abilene_nodelay_network.content_distribution 	repo-8_card 	90629
scalar abilene_nodelay_network.content_distribution 	repo-8_price 	0
scalar abilene_nodelay_network.content_distribution 	repo-9_card 	91219
scalar abilene_nodelay_network.content_distribution 	repo-9_price 	0
scalar abilene_nodelay_network.content_distribution 	repo-10_card 	90979
scalar abilene_nodelay_network.content_distribution 	repo-10_price 	0
scalar abilene_nodelay_network.statistics 	stabilization_time 	292.5
scalar abilene_nodelay_network.statistics 	p_hit 	0.1371200030043
scalar abilene_nodelay_network.statistics 	interests 	72623.181818182
scalar abilene_nodelay_network.statistics 	data 	31565.090909091
scalar abilene_nodelay_network.statistics 	hdistance 	1.3692877247596
scalar abilene_nodelay_network.statistics 	avg_time 	0
scalar abilene_nodelay_network.statistics 	downloads 	198354
scalar abilene_nodelay_network.statistics 	total_cost 	0
scalar abilene_nodelay_network.statistics 	total_replicas 	1000000
scalar abilene_nodelay_network.statistics 	"representations_downloaded 0.44776:0:0:0:0.55224:" 	0
scalar abilene_nodelay_network.statistics 	"slots_per_representation 100:233:500:833:1167:" 	0
scalar abilene_nodelay_network.statistics 	inner_hit 	21652.788020408
scalar abilene_nodelay_network.statistics 	interests_sent 	198354
scalar abilene_nodelay_network.statistics 	execution_time 	181762
scalar abilene_nodelay_network.node[0].core_layer 	interests[0] 	43550
scalar abilene_nodelay_network.node[0].core_layer 	repo_load[0] 	21113
scalar abilene_nodelay_network.node[0].core_layer 	data[0] 	13045
scalar abilene_nodelay_network.node[0].core_layer 	slots_sent[face$o[1]->client[0]] 	12925381
scalar abilene_nodelay_network.node[0].core_layer 	slots_sent[face$o[2]->node[1]] 	6089202
scalar abilene_nodelay_network.node[0].core_layer 	slots_sent[face$o[3]->node[10]] 	1655969
scalar abilene_nodelay_network.node[0].content_store 	p_hit[0] 	0.21566016073479
scalar abilene_nodelay_network.node[0].content_store 	hits[0] 	9392
scalar abilene_nodelay_network.node[0].content_store 	misses[0] 	34158
scalar abilene_nodelay_network.node[0].content_store 	decision_yes[0] 	7048
scalar abilene_nodelay_network.node[0].content_store 	decision_no[0] 	27110
scalar abilene_nodelay_network.node[0].content_store 	decision_ratio[0] 	0.20633526553077
scalar abilene_nodelay_network.node[0].proactive_component 	hdistance[0].proactive_component 	2.291539050536
scalar abilene_nodelay_network.node[0].proactive_component 	downloads[0].proactive_component 	36568
scalar abilene_nodelay_network.node[0].proactive_component 	avg_time[0].proactive_component 	0
scalar abilene_nodelay_network.node[0].proactive_component 	interests_sent[0].proactive_component 	36568
scalar abilene_nodelay_network.node[1].core_layer 	interests[1] 	87773
scalar abilene_nodelay_network.node[1].core_layer 	repo_load[1] 	23146
scalar abilene_nodelay_network.node[1].core_layer 	data[1] 	41727
scalar abilene_nodelay_network.node[1].core_layer 	slots_sent[face$o[1]->client[1]] 	11842767
scalar abilene_nodelay_network.node[1].core_layer 	slots_sent[face$o[2]->node[0]] 	7110128
scalar abilene_nodelay_network.node[1].core_layer 	slots_sent[face$o[3]->node[10]] 	5490228
scalar abilene_nodelay_network.node[1].core_layer 	slots_sent[face$o[4]->node[2]] 	14839490
scalar abilene_nodelay_network.node[1].content_store 	p_hit[1] 	0.11168582593736
scalar abilene_nodelay_network.node[1].content_store 	hits[1] 	9803
scalar abilene_nodelay_network.node[1].content_store 	misses[1] 	77970
scalar abilene_nodelay_network.node[1].content_store 	decision_yes[1] 	21807
scalar abilene_nodelay_network.node[1].content_store 	decision_no[1] 	43066
scalar abilene_nodelay_network.node[1].content_store 	decision_ratio[1] 	0.33614909130147
scalar abilene_nodelay_network.node[1].proactive_component 	hdistance[1].proactive_component 	2.35130891434
scalar abilene_nodelay_network.node[1].proactive_component 	downloads[1].proactive_component 	75788
scalar abilene_nodelay_network.node[1].proactive_component 	avg_time[1].proactive_component 	0
scalar abilene_nodelay_network.node[1].proactive_component 	interests_sent[1].proactive_component 	75788
scalar abilene_nodelay_network.node[2].core_layer 	interests[2] 	121473
scalar abilene_nodelay_network.node[2].core_layer 	repo_load[2] 	25259
scalar abilene_nodelay_network.node[2].core_layer 	data[2] 	62531
scalar abilene_nodelay_network.node[2].core_layer 	slots_sent[face$o[1]->client[2]] 	11604561
scalar abilene_nodelay_network.node[2].core_layer 	slots_sent[face$o[2]->node[1]] 	16177000
scalar abilene_nodelay_network.node[2].core_layer 	slots_sent[face$o[3]->node[3]] 	19130008
scalar abilene_nodelay_network.node[2].core_layer 	slots_sent[face$o[4]->node[8]] 	7656636
scalar abilene_nodelay_network.node[2].content_store 	p_hit[2] 	0.086941130950911
scalar abilene_nodelay_network.node[2].content_store 	hits[2] 	10561
scalar abilene_nodelay_network.node[2].content_store 	misses[2] 	110912
scalar abilene_nodelay_network.node[2].content_store 	decision_yes[2] 	32618
scalar abilene_nodelay_network.node[2].content_store 	decision_no[2] 	55172
scalar abilene_nodelay_network.node[2].content_store 	decision_ratio[2] 	0.37154573413828
scalar abilene_nodelay_network.node[2].proactive_component 	hdistance[2].proactive_component 	2.3366970715315
scalar abilene_nodelay_network.node[2].proactive_component 	downloads[2].proactive_component 	104150
scalar abilene_nodelay_network.node[2].proactive_component 	avg_time[2].proactive_component 	0
scalar abilene_nodelay_network.node[2].proactive_component 	interests_sent[2].proactive_component 	104150
scalar abilene_nodelay_network.node[3].core_layer 	interests[3] 	112637
scalar abilene_nodelay_network.node[3].core_layer 	repo_load[3] 	23279
scalar abilene_nodelay_network.node[3].core_layer 	data[3] 	57480
scalar abilene_nodelay_network.node[3].core_layer 	slots_sent[face$o[1]->client[3]] 	12294113
scalar abilene_nodelay_network.node[3].core_layer 	slots_sent[face$o[2]->node[2]] 	19122504
scalar abilene_nodelay_network.node[3].core_layer 	slots_sent[face$o[3]->node[4]] 	11816979
scalar abilene_nodelay_network.node[3].core_layer 	slots_sent[face$o[4]->node[7]] 	8506897
scalar abilene_nodelay_network.node[3].content_store 	p_hit[3] 	0.098919537984854
scalar abilene_nodelay_network.node[3].content_store 	hits[3] 	11142
scalar abilene_nodelay_network.node[3].content_store 	misses[3] 	101495
scalar abilene_nodelay_network.node[3].content_store 	decision_yes[3] 	30029
scalar abilene_nodelay_network.node[3].content_store 	decision_no[3] 	50730
scalar abilene_nodelay_network.node[3].content_store 	decision_ratio[3] 	0.37183471811191
scalar abilene_nodelay_network.node[3].proactive_component 	hdistance[3].proactive_component 	2.3732810867294
scalar abilene_nodelay_network.node[3].proactive_component 	downloads[3].proactive_component 	95700
scalar abilene_nodelay_network.node[3].proactive_component 	avg_time[3].proactive_component 	0
scalar abilene_nodelay_network.node[3].proactive_component 	interests_sent[3].proactive_component 	95700
scalar abilene_nodelay_network.node[4].core_layer 	interests[4] 	63764
scalar abilene_nodelay_network.node[4].core_layer 	repo_load[4] 	21970
scalar abilene_nodelay_network.node[4].core_layer 	data[4] 	26070
scalar abilene_nodelay_network.node[4].core_layer 	slots_sent[face$o[1]->client[4]] 	12542229
scalar abilene_nodelay_network.node[4].core_layer 	slots_sent[face$o[2]->node[3]] 	10662418
scalar abilene_nodelay_network.node[4].core_layer 	slots_sent[face$o[3]->node[5]] 	6431879
scalar abilene_nodelay_network.node[4].content_store 	p_hit[4] 	0.15353490998055
scalar abilene_nodelay_network.node[4].content_store 	hits[4] 	9790
scalar abilene_nodelay_network.node[4].content_store 	misses[4] 	53974
scalar abilene_nodelay_network.node[4].content_store 	decision_yes[4] 	13811
scalar abilene_nodelay_network.node[4].content_store 	decision_no[4] 	34229
scalar abilene_nodelay_network.node[4].content_store 	decision_ratio[4] 	0.28748959200666
scalar abilene_nodelay_network.node[4].proactive_component 	hdistance[4].proactive_component 	2.3698792943361
scalar abilene_nodelay_network.node[4].proactive_component 	downloads[4].proactive_component 	53850
scalar abilene_nodelay_network.node[4].proactive_component 	avg_time[4].proactive_component 	0
scalar abilene_nodelay_network.node[4].proactive_component 	interests_sent[4].proactive_component 	53850
scalar abilene_nodelay_network.node[5].core_layer 	interests[5] 	49255
scalar abilene_nodelay_network.node[5].core_layer 	repo_load[5] 	23258
scalar abilene_nodelay_network.node[5].core_layer 	data[5] 	16129
scalar abilene_nodelay_network.node[5].core_layer 	slots_sent[face$o[1]->client[5]] 	11954299
scalar abilene_nodelay_network.node[5].core_layer 	slots_sent[face$o[2]->node[4]] 	5526358
scalar abilene_nodelay_network.node[5].core_layer 	slots_sent[face$o[3]->node[6]] 	4115186
scalar abilene_nodelay_network.node[5].content_store 	p_hit[5] 	0.17411430311643
scalar abilene_nodelay_network.node[5].content_store 	hits[5] 	8576
scalar abilene_nodelay_network.node[5].content_store 	misses[5] 	40679
scalar abilene_nodelay_network.node[5].content_store 	decision_yes[5] 	8666
scalar abilene_nodelay_network.node[5].content_store 	decision_no[5] 	30721
scalar abilene_nodelay_network.node[5].content_store 	decision_ratio[5] 	0.22002183461548
scalar abilene_nodelay_network.node[5].proactive_component 	hdistance[5].proactive_component 	2.2119836900182
scalar abilene_nodelay_network.node[5].proactive_component 	downloads[5].proactive_component 	43409
scalar abilene_nodelay_network.node[5].proactive_component 	avg_time[5].proactive_component 	0
scalar abilene_nodelay_network.node[5].proactive_component 	interests_sent[5].proactive_component 	43409
scalar abilene_nodelay_network.node[6].core_layer 	interests[6] 	55431
scalar abilene_nodelay_network.node[6].core_layer 	repo_load[6] 	21185
scalar abilene_nodelay_network.node[6].core_layer 	data[6] 	20923
scalar abilene_nodelay_network.node[6].core_layer 	slots_sent[face$o[1]->client[6]] 	12867289
scalar abilene_nodelay_network.node[6].core_layer 	slots_sent[face$o[2]->node[5]] 	4427643
scalar abilene_nodelay_network.node[6].core_layer 	slots_sent[face$o[3]->node[7]] 	8673357
scalar abilene_nodelay_network.node[6].content_store 	p_hit[6] 	0.17643556854468
scalar abilene_nodelay_network.node[6].content_store 	hits[6] 	9780
scalar abilene_nodelay_network.node[6].content_store 	misses[6] 	45651
scalar abilene_nodelay_network.node[6].content_store 	decision_yes[6] 	11134
scalar abilene_nodelay_network.node[6].content_store 	decision_no[6] 	30974
scalar abilene_nodelay_network.node[6].content_store 	decision_ratio[6] 	0.26441531300465
scalar abilene_nodelay_network.node[6].proactive_component 	hdistance[6].proactive_component 	2.2550919771879
scalar abilene_nodelay_network.node[6].proactive_component 	downloads[6].proactive_component 	46642
scalar abilene_nodelay_network.node[6].proactive_component 	avg_time[6].proactive_component 	0
scalar abilene_nodelay_network.node[6].proactive_component 	interests_sent[6].proactive_component 	46642
scalar abilene_nodelay_network.node[7].core_layer 	interests[7] 	80660
scalar abilene_nodelay_network.node[7].core_layer 	repo_load[7] 	23151
scalar abilene_nodelay_network.node[7].core_layer 	data[7] 	36283
scalar abilene_nodelay_network.node[7].core_layer 	slots_sent[face$o[1]->client[7]] 	12766255
scalar abilene_nodelay_network.node[7].core_layer 	slots_sent[face$o[2]->node[3]] 	7996517
scalar abilene_nodelay_network.node[7].core_layer 	slots_sent[face$o[3]->node[6]] 	9857092
scalar abilene_nodelay_network.node[7].core_layer 	slots_sent[face$o[4]->node[8]] 	6985688
scalar abilene_nodelay_network.node[7].content_store 	p_hit[7] 	0.13274237540293
scalar abilene_nodelay_network.node[7].content_store 	hits[7] 	10707
scalar abilene_nodelay_network.node[7].content_store 	misses[7] 	69953
scalar abilene_nodelay_network.node[7].content_store 	decision_yes[7] 	19100
scalar abilene_nodelay_network.node[7].content_store 	decision_no[7] 	40334
scalar abilene_nodelay_network.node[7].content_store 	decision_ratio[7] 	0.32136487532389
scalar abilene_nodelay_network.node[7].proactive_component 	hdistance[7].proactive_component 	2.2226908726238
scalar abilene_nodelay_network.node[7].proactive_component 	downloads[7].proactive_component 	67807
scalar abilene_nodelay_network.node[7].proactive_component 	avg_time[7].proactive_component 	0
scalar abilene_nodelay_network.node[7].proactive_component 	interests_sent[7].proactive_component 	67807
scalar abilene_nodelay_network.node[8].core_layer 	interests[8] 	76318
scalar abilene_nodelay_network.node[8].core_layer 	repo_load[8] 	22332
scalar abilene_nodelay_network.node[8].core_layer 	data[8] 	33759
scalar abilene_nodelay_network.node[8].core_layer 	slots_sent[face$o[1]->client[8]] 	13042206
scalar abilene_nodelay_network.node[8].core_layer 	slots_sent[face$o[2]->node[2]] 	7094512
scalar abilene_nodelay_network.node[8].core_layer 	slots_sent[face$o[3]->node[7]] 	6827746
scalar abilene_nodelay_network.node[8].core_layer 	slots_sent[face$o[4]->node[9]] 	8929442
scalar abilene_nodelay_network.node[8].content_store 	p_hit[8] 	0.14208967740245
scalar abilene_nodelay_network.node[8].content_store 	hits[8] 	10844
scalar abilene_nodelay_network.node[8].content_store 	misses[8] 	65474
scalar abilene_nodelay_network.node[8].content_store 	decision_yes[8] 	17755
scalar abilene_nodelay_network.node[8].content_store 	decision_no[8] 	38336
scalar abilene_nodelay_network.node[8].content_store 	decision_ratio[8] 	0.31653919523631
scalar abilene_nodelay_network.node[8].proactive_component 	hdistance[8].proactive_component 	2.1519916142557
scalar abilene_nodelay_network.node[8].proactive_component 	downloads[8].proactive_component 	63918
scalar abilene_nodelay_network.node[8].proactive_component 	avg_time[8].proactive_component 	0
scalar abilene_nodelay_network.node[8].proactive_component 	interests_sent[8].proactive_component 	63918
scalar abilene_nodelay_network.node[9].core_layer 	interests[9] 	55031
scalar abilene_nodelay_network.node[9].core_layer 	repo_load[9] 	21054
scalar abilene_nodelay_network.node[9].core_layer 	data[9] 	20894
scalar abilene_nodelay_network.node[9].core_layer 	slots_sent[face$o[1]->client[9]] 	12611107
scalar abilene_nodelay_network.node[9].core_layer 	slots_sent[face$o[2]->node[10]] 	5062543
scalar abilene_nodelay_network.node[9].core_layer 	slots_sent[face$o[3]->node[8]] 	7678161
scalar abilene_nodelay_network.node[9].content_store 	p_hit[9] 	0.1746470171358
scalar abilene_nodelay_network.node[9].content_store 	hits[9] 	9611
scalar abilene_nodelay_network.node[9].content_store 	misses[9] 	45420
scalar abilene_nodelay_network.node[9].content_store 	decision_yes[9] 	11058
scalar abilene_nodelay_network.node[9].content_store 	decision_no[9] 	30890
scalar abilene_nodelay_network.node[9].content_store 	decision_ratio[9] 	0.26361209116048
scalar abilene_nodelay_network.node[9].proactive_component 	hdistance[9].proactive_component 	2.1539421632713
scalar abilene_nodelay_network.node[9].proactive_component 	downloads[9].proactive_component 	47271
scalar abilene_nodelay_network.node[9].proactive_component 	avg_time[9].proactive_component 	0
scalar abilene_nodelay_network.node[9].proactive_component 	interests_sent[9].proactive_component 	47271
scalar abilene_nodelay_network.node[10].core_layer 	interests[10] 	52963
scalar abilene_nodelay_network.node[10].core_layer 	repo_load[10] 	22788
scalar abilene_nodelay_network.node[10].core_layer 	data[10] 	18375
scalar abilene_nodelay_network.node[10].core_layer 	slots_sent[face$o[1]->client[10]] 	12263306
scalar abilene_nodelay_network.node[10].core_layer 	slots_sent[face$o[2]->node[0]] 	1714588
scalar abilene_nodelay_network.node[10].core_layer 	slots_sent[face$o[3]->node[1]] 	5174567
scalar abilene_nodelay_network.node[10].core_layer 	slots_sent[face$o[4]->node[9]] 	4958844
scalar abilene_nodelay_network.node[10].content_store 	p_hit[10] 	0.17621735928856
scalar abilene_nodelay_network.node[10].content_store 	hits[10] 	9333
scalar abilene_nodelay_network.node[10].content_store 	misses[10] 	43630
scalar abilene_nodelay_network.node[10].content_store 	decision_yes[10] 	9720
scalar abilene_nodelay_network.node[10].content_store 	decision_no[10] 	31443
scalar abilene_nodelay_network.node[10].content_store 	decision_ratio[10] 	0.23613439253699
scalar abilene_nodelay_network.node[10].proactive_component 	hdistance[10].proactive_component 	2.0634146341463
scalar abilene_nodelay_network.node[10].proactive_component 	downloads[10].proactive_component 	46330
scalar abilene_nodelay_network.node[10].proactive_component 	avg_time[10].proactive_component 	0
scalar abilene_nodelay_network.node[10].proactive_component 	interests_sent[10].proactive_component 	46330
scalar abilene_nodelay_network.client[0] 	hdistance[0].real 	1.4892017725921
scalar abilene_nodelay_network.client[0] 	downloads[0].real 	17827
scalar abilene_nodelay_network.client[0] 	avg_time[0].real 	0
scalar abilene_nodelay_network.client[0] 	interests_sent[0].real 	17827
scalar abilene_nodelay_network.client[1] 	hdistance[1].real 	1.4217120150119
scalar abilene_nodelay_network.client[1] 	downloads[1].real 	18119
scalar abilene_nodelay_network.client[1] 	avg_time[1].real 	0
scalar abilene_nodelay_network.client[1] 	interests_sent[1].real 	18119
scalar abilene_nodelay_network.client[2] 	hdistance[2].real 	1.2640757349277
scalar abilene_nodelay_network.client[2] 	downloads[2].real 	18063
scalar abilene_nodelay_network.client[2] 	avg_time[2].real 	0
scalar abilene_nodelay_network.client[2] 	interests_sent[2].real 	18063
scalar abilene_nodelay_network.client[3] 	hdistance[3].real 	1.2576980900941
scalar abilene_nodelay_network.client[3] 	downloads[3].real 	17959
scalar abilene_nodelay_network.client[3] 	avg_time[3].real 	0
scalar abilene_nodelay_network.client[3] 	interests_sent[3].real 	17959
scalar abilene_nodelay_network.client[4] 	hdistance[4].real 	1.4349218837811
scalar abilene_nodelay_network.client[4] 	downloads[4].real 	17794
scalar abilene_nodelay_network.client[4] 	avg_time[4].real 	0
scalar abilene_nodelay_network.client[4] 	interests_sent[4].real 	17794
scalar abilene_nodelay_network.client[5] 	hdistance[5].real 	1.559033498078
scalar abilene_nodelay_network.client[5] 	downloads[5].real 	18210
scalar abilene_nodelay_network.client[5] 	avg_time[5].real 	0
scalar abilene_nodelay_network.client[5] 	interests_sent[5].real 	18210
scalar abilene_nodelay_network.client[6] 	hdistance[6].real 	1.4169020324528
scalar abilene_nodelay_network.client[6] 	downloads[6].real 	18057
scalar abilene_nodelay_network.client[6] 	avg_time[6].real 	0
scalar abilene_nodelay_network.client[6] 	interests_sent[6].real 	18057
scalar abilene_nodelay_network.client[7] 	hdistance[7].real 	1.2634132892197
scalar abilene_nodelay_network.client[7] 	downloads[7].real 	18135
scalar abilene_nodelay_network.client[7] 	avg_time[7].real 	0
scalar abilene_nodelay_network.client[7] 	interests_sent[7].real 	18135
scalar abilene_nodelay_network.client[8] 	hdistance[8].real 	1.2029128881561
scalar abilene_nodelay_network.client[8] 	downloads[8].real 	18195
scalar abilene_nodelay_network.client[8] 	avg_time[8].real 	0
scalar abilene_nodelay_network.client[8] 	interests_sent[8].real 	18195
scalar abilene_nodelay_network.client[9] 	hdistance[9].real 	1.3418322295806
scalar abilene_nodelay_network.client[9] 	downloads[9].real 	18120
scalar abilene_nodelay_network.client[9] 	avg_time[9].real 	0
scalar abilene_nodelay_network.client[9] 	interests_sent[9].real 	18120
scalar abilene_nodelay_network.client[10] 	hdistance[10].real 	1.4104615384615
scalar abilene_nodelay_network.client[10] 	downloads[10].real 	17875
scalar abilene_nodelay_network.client[10] 	avg_time[10].real 	0
scalar abilene_nodelay_network.client[10] 	interests_sent[10].real 	17875
