version 2
run General-2-20150615-16:01:41-29996
attr D lce
attr F spr
attr R fifo
attr a 1
attr configname General
attr datetime 20150615-16:01:41
attr experiment General
attr inifile omnetpp.ini
attr iterationvars "$net=abilene, $rep=0, $a=1, $F=spr, $ttl=1000, $D=lce, $R=fifo, $window=60, $variance=0.05, $mytime=1800"
attr iterationvars2 "$net=abilene, $rep=0, $a=1, $F=spr, $ttl=1000, $D=lce, $R=fifo, $window=60, $variance=0.05, $mytime=1800, $repetition=0"
attr measurement "$net=abilene, $rep=0, $a=1, $F=spr, $ttl=1000, $D=lce, $R=fifo, $window=60, $variance=0.05, $mytime=1800"
attr mytime 1800
attr net abilene
attr network networks.${net=abilene}_network
attr processid 29996
attr rep 0
attr repetition 0
attr replication #0
attr resultdir results
attr runnumber 2
attr seedset 0
attr ttl 1000
attr variance 0.05
attr window 60

scalar . 	a 	1
scalar . 	mytime 	1800
scalar . 	rep 	0
scalar . 	ttl 	1000
scalar . 	variance 	0.05
scalar . 	window 	60
scalar abilene_network.content_distribution 	repo-0 	5
scalar abilene_network.content_distribution 	client-0 	8
scalar abilene_network.content_distribution 	client-1 	9
scalar abilene_network.content_distribution 	client-2 	5
scalar abilene_network.content_distribution 	client-3 	0
scalar abilene_network.content_distribution 	client-4 	1
scalar abilene_network.content_distribution 	client-5 	7
scalar abilene_network.content_distribution 	client-6 	6
scalar abilene_network.content_distribution 	client-7 	2
scalar abilene_network.content_distribution 	client-8 	4
scalar abilene_network.content_distribution 	client-9 	10
scalar abilene_network.content_distribution 	client-10 	3
scalar abilene_network.content_distribution 	repo-0_card 	1000
scalar abilene_network.content_distribution 	repo-0_price 	0
scalar abilene_network.statistics 	stabilization_time 	60.2
scalar abilene_network.statistics 	p_hit 	0.078265628932097
scalar abilene_network.statistics 	interests 	547287.72727273
scalar abilene_network.statistics 	data 	367178
scalar abilene_network.statistics 	hdistance 	2.9040650022465
scalar abilene_network.statistics 	avg_time 	0.011907431579
scalar abilene_network.statistics 	downloads 	1945803
scalar abilene_network.statistics 	total_cost 	0
scalar abilene_network.statistics 	total_replicas 	1000
scalar abilene_network.statistics 	inner_hit 	0.27062040710185
scalar abilene_network.node[0].core_layer 	interests[0] 	180271
scalar abilene_network.node[0].core_layer 	data[0] 	144002
scalar abilene_network.node[0].core_layer 	repo_int[0] 	1419229
scalar abilene_network.node[0].content_store 	p_hit[0] 	0.17263453356336
scalar abilene_network.node[0].content_store 	hits[0] 	31121
scalar abilene_network.node[0].content_store 	misses[0] 	149150
scalar abilene_network.node[0].content_store 	decision_yes[0] 	144002
scalar abilene_network.node[0].content_store 	decision_no[0] 	0
scalar abilene_network.node[0].content_store 	decision_ratio[0] 	1
scalar abilene_network.node[1].core_layer 	interests[1] 	467907
scalar abilene_network.node[1].core_layer 	data[1] 	402447
scalar abilene_network.node[1].content_store 	p_hit[1] 	0.10331540241971
scalar abilene_network.node[1].content_store 	hits[1] 	48342
scalar abilene_network.node[1].content_store 	misses[1] 	419565
scalar abilene_network.node[1].content_store 	decision_yes[1] 	402447
scalar abilene_network.node[1].content_store 	decision_no[1] 	0
scalar abilene_network.node[1].content_store 	decision_ratio[1] 	1
scalar abilene_network.node[2].core_layer 	interests[2] 	582799
scalar abilene_network.node[2].core_layer 	data[2] 	529792
scalar abilene_network.node[2].content_store 	p_hit[2] 	0.066825783846575
scalar abilene_network.node[2].content_store 	hits[2] 	38946
scalar abilene_network.node[2].content_store 	misses[2] 	543853
scalar abilene_network.node[2].content_store 	decision_yes[2] 	529792
scalar abilene_network.node[2].content_store 	decision_no[2] 	0
scalar abilene_network.node[2].content_store 	decision_ratio[2] 	1
scalar abilene_network.node[3].core_layer 	interests[3] 	710154
scalar abilene_network.node[3].core_layer 	data[3] 	658089
scalar abilene_network.node[3].content_store 	p_hit[3] 	0.055848449772866
scalar abilene_network.node[3].content_store 	hits[3] 	39661
scalar abilene_network.node[3].content_store 	misses[3] 	670493
scalar abilene_network.node[3].content_store 	decision_yes[3] 	658089
scalar abilene_network.node[3].content_store 	decision_no[3] 	0
scalar abilene_network.node[3].content_store 	decision_ratio[3] 	1
scalar abilene_network.node[4].core_layer 	interests[4] 	838828
scalar abilene_network.node[4].core_layer 	data[4] 	785583
scalar abilene_network.node[4].content_store 	p_hit[4] 	0.047239720181014
scalar abilene_network.node[4].content_store 	hits[4] 	39626
scalar abilene_network.node[4].content_store 	misses[4] 	799202
scalar abilene_network.node[4].content_store 	decision_yes[4] 	785583
scalar abilene_network.node[4].content_store 	decision_no[4] 	0
scalar abilene_network.node[4].content_store 	decision_ratio[4] 	1
scalar abilene_network.node[5].core_layer 	interests[5] 	1509309
scalar abilene_network.node[5].core_layer 	repo_load[5] 	1419229
scalar abilene_network.node[5].core_layer 	data[5] 	0
scalar abilene_network.node[5].content_store 	p_hit[5] 	0.059682941001478
scalar abilene_network.node[5].content_store 	hits[5] 	90080
scalar abilene_network.node[5].content_store 	misses[5] 	1419229
scalar abilene_network.node[5].content_store 	decision_yes[5] 	1419229
scalar abilene_network.node[5].content_store 	decision_no[5] 	0
scalar abilene_network.node[5].content_store 	decision_ratio[5] 	1
scalar abilene_network.node[6].core_layer 	interests[6] 	589723
scalar abilene_network.node[6].core_layer 	data[6] 	544340
scalar abilene_network.node[6].content_store 	p_hit[6] 	0.072230521787348
scalar abilene_network.node[6].content_store 	hits[6] 	42596
scalar abilene_network.node[6].content_store 	misses[6] 	547127
scalar abilene_network.node[6].content_store 	decision_yes[6] 	544340
scalar abilene_network.node[6].content_store 	decision_no[6] 	0
scalar abilene_network.node[6].content_store 	decision_ratio[6] 	1
scalar abilene_network.node[7].core_layer 	interests[7] 	457070
scalar abilene_network.node[7].core_layer 	data[7] 	409515
scalar abilene_network.node[7].content_store 	p_hit[7] 	0.088802590412847
scalar abilene_network.node[7].content_store 	hits[7] 	40589
scalar abilene_network.node[7].content_store 	misses[7] 	416481
scalar abilene_network.node[7].content_store 	decision_yes[7] 	409515
scalar abilene_network.node[7].content_store 	decision_no[7] 	0
scalar abilene_network.node[7].content_store 	decision_ratio[7] 	1
scalar abilene_network.node[8].core_layer 	interests[8] 	323899
scalar abilene_network.node[8].core_layer 	data[8] 	277532
scalar abilene_network.node[8].content_store 	p_hit[8] 	0.11901858295333
scalar abilene_network.node[8].content_store 	hits[8] 	38550
scalar abilene_network.node[8].content_store 	misses[8] 	285349
scalar abilene_network.node[8].content_store 	decision_yes[8] 	277532
scalar abilene_network.node[8].content_store 	decision_no[8] 	0
scalar abilene_network.node[8].content_store 	decision_ratio[8] 	1
scalar abilene_network.node[9].core_layer 	interests[9] 	180394
scalar abilene_network.node[9].core_layer 	data[9] 	143888
scalar abilene_network.node[9].content_store 	p_hit[9] 	0.17026065168465
scalar abilene_network.node[9].content_store 	hits[9] 	30714
scalar abilene_network.node[9].content_store 	misses[9] 	149680
scalar abilene_network.node[9].content_store 	decision_yes[9] 	143888
scalar abilene_network.node[9].content_store 	decision_no[9] 	0
scalar abilene_network.node[9].content_store 	decision_ratio[9] 	1
scalar abilene_network.node[10].core_layer 	interests[10] 	179811
scalar abilene_network.node[10].core_layer 	data[10] 	143770
scalar abilene_network.node[10].content_store 	p_hit[10] 	0.17210849169406
scalar abilene_network.node[10].content_store 	hits[10] 	30947
scalar abilene_network.node[10].content_store 	misses[10] 	148864
scalar abilene_network.node[10].content_store 	decision_yes[10] 	143770
scalar abilene_network.node[10].content_store 	decision_no[10] 	0
scalar abilene_network.node[10].content_store 	decision_ratio[10] 	1
scalar abilene_network.client[0] 	hdistance[0] 	4.4222803401037
scalar abilene_network.client[0] 	downloads[0] 	175123
scalar abilene_network.client[0] 	avg_time[0] 	0.023162495525
scalar abilene_network.client[1] 	hdistance[1] 	3.952753486308
scalar abilene_network.client[1] 	downloads[1] 	175759
scalar abilene_network.client[1] 	avg_time[1] 	0.015720188594
scalar abilene_network.client[2] 	hdistance[2] 	3.2468044932132
scalar abilene_network.client[2] 	downloads[2] 	176889
scalar abilene_network.client[2] 	avg_time[2] 	0.011381819003
scalar abilene_network.client[3] 	hdistance[3] 	2.4836033299584
scalar abilene_network.client[3] 	downloads[3] 	177780
scalar abilene_network.client[3] 	avg_time[3] 	0.007690604406
scalar abilene_network.client[4] 	hdistance[4] 	1.6719793998351
scalar abilene_network.client[4] 	downloads[4] 	178251
scalar abilene_network.client[4] 	avg_time[4] 	0.006441680688
scalar abilene_network.client[5] 	hdistance[5] 	0.86894110432868
scalar abilene_network.client[5] 	downloads[5] 	179385
scalar abilene_network.client[5] 	avg_time[5] 	0
scalar abilene_network.client[6] 	hdistance[6] 	1.635912543717
scalar abilene_network.client[6] 	downloads[6] 	179564
scalar abilene_network.client[6] 	avg_time[6] 	0.001860414903
scalar abilene_network.client[7] 	hdistance[7] 	2.4064064967291
scalar abilene_network.client[7] 	downloads[7] 	177320
scalar abilene_network.client[7] 	avg_time[7] 	0.006615169559
scalar abilene_network.client[8] 	hdistance[8] 	3.1101676180327
scalar abilene_network.client[8] 	downloads[8] 	176413
scalar abilene_network.client[8] 	avg_time[8] 	0.012380634497
scalar abilene_network.client[9] 	hdistance[9] 	3.7157134511632
scalar abilene_network.client[9] 	downloads[9] 	174602
scalar abilene_network.client[9] 	avg_time[9] 	0.023286990059
scalar abilene_network.client[10] 	hdistance[10] 	4.4301527613226
scalar abilene_network.client[10] 	downloads[10] 	174717
scalar abilene_network.client[10] 	avg_time[10] 	0.022441750137
