version 2
run General-0-20150723-14:46:45-19901
attr C 11
attr D lce
attr F spr
attr R partitioneds
attr a 1
attr brates 0.3_0.7_1.5_2.5_3.5
attr configname General
attr ctlg 11
attr datetime 20150723-14:46:45
attr experiment General
attr inifile omnetpp.ini
attr iterationvars "$net=abilene, $rep=1, $lambda=100, $a=1, $ctlg=11, $brates=0.3_0.7_1.5_2.5_3.5, $F=spr, $ttl=1000, $D=lce, $R=partitioneds, $C=11, $window=60, $variance=0.05, $mytime=1800"
attr iterationvars2 "$net=abilene, $rep=1, $lambda=100, $a=1, $ctlg=11, $brates=0.3_0.7_1.5_2.5_3.5, $F=spr, $ttl=1000, $D=lce, $R=partitioneds, $C=11, $window=60, $variance=0.05, $mytime=1800, $repetition=0"
attr lambda 100
attr measurement "$net=abilene, $rep=1, $lambda=100, $a=1, $ctlg=11, $brates=0.3_0.7_1.5_2.5_3.5, $F=spr, $ttl=1000, $D=lce, $R=partitioneds, $C=11, $window=60, $variance=0.05, $mytime=1800"
attr mytime 1800
attr net abilene
attr network networks.${net=abilene}_network
attr processid 19901
attr rep 1
attr repetition 0
attr replication #0
attr resultdir results
attr runnumber 0
attr seedset 1
attr ttl 1000
attr variance 0.05
attr window 60

scalar . 	C 	11
scalar . 	a 	1
scalar . 	ctlg 	11
scalar . 	lambda 	100
scalar . 	mytime 	1800
scalar . 	rep 	1
scalar . 	ttl 	1000
scalar . 	variance 	0.05
scalar . 	window 	60
scalar abilene_network.content_distribution 	repo-0 	10
scalar abilene_network.content_distribution 	client-0 	7
scalar abilene_network.content_distribution 	repo-0_card 	11
scalar abilene_network.content_distribution 	repo-0_price 	0
