version 2
run General-2-20150721-11:47:07-18052
attr C 1e4
attr D lce
attr F spr
attr R always_highq
attr a 1
attr brates 0.3_0.7_1.5_2.5_3.5
attr configname General
attr ctlg 1e6
attr datetime 20150721-11:47:07
attr experiment General
attr inifile omnetpp.ini
attr iterationvars "$net=barabasi_100nodes, $rep=0, $lambda=100, $a=1, $ctlg=1e6, $brates=0.3_0.7_1.5_2.5_3.5, $F=spr, $ttl=1000, $D=lce, $R=always_highq, $C=1e4, $window=60, $variance=0.05, $mytime=1800"
attr iterationvars2 "$net=barabasi_100nodes, $rep=0, $lambda=100, $a=1, $ctlg=1e6, $brates=0.3_0.7_1.5_2.5_3.5, $F=spr, $ttl=1000, $D=lce, $R=always_highq, $C=1e4, $window=60, $variance=0.05, $mytime=1800, $repetition=0"
attr lambda 100
attr measurement "$net=barabasi_100nodes, $rep=0, $lambda=100, $a=1, $ctlg=1e6, $brates=0.3_0.7_1.5_2.5_3.5, $F=spr, $ttl=1000, $D=lce, $R=always_highq, $C=1e4, $window=60, $variance=0.05, $mytime=1800"
attr mytime 1800
attr net barabasi_100nodes
attr network networks.${net=barabasi_100nodes}_network
attr processid 18052
attr rep 0
attr repetition 0
attr replication #0
attr resultdir results
attr runnumber 2
attr seedset 0
attr ttl 1000
attr variance 0.05
attr window 60

scalar . 	C 	1e4
scalar . 	a 	1
scalar . 	ctlg 	1e6
scalar . 	lambda 	100
scalar . 	mytime 	1800
scalar . 	rep 	0
scalar . 	ttl 	1000
scalar . 	variance 	0.05
scalar . 	window 	60
scalar barabasi_100nodes_network.content_distribution 	repo-0 	37
scalar barabasi_100nodes_network.content_distribution 	repo-1 	12
scalar barabasi_100nodes_network.content_distribution 	repo-2 	72
scalar barabasi_100nodes_network.content_distribution 	repo-3 	9
scalar barabasi_100nodes_network.content_distribution 	repo-4 	75
scalar barabasi_100nodes_network.content_distribution 	repo-5 	5
scalar barabasi_100nodes_network.content_distribution 	repo-6 	79
scalar barabasi_100nodes_network.content_distribution 	repo-7 	64
scalar barabasi_100nodes_network.content_distribution 	repo-8 	16
scalar barabasi_100nodes_network.content_distribution 	repo-9 	1
scalar barabasi_100nodes_network.content_distribution 	repo-10 	76
scalar barabasi_100nodes_network.content_distribution 	repo-11 	71
scalar barabasi_100nodes_network.content_distribution 	repo-12 	6
scalar barabasi_100nodes_network.content_distribution 	repo-13 	25
scalar barabasi_100nodes_network.content_distribution 	repo-14 	50
scalar barabasi_100nodes_network.content_distribution 	repo-15 	20
scalar barabasi_100nodes_network.content_distribution 	repo-16 	18
scalar barabasi_100nodes_network.content_distribution 	repo-17 	84
scalar barabasi_100nodes_network.content_distribution 	repo-18 	11
scalar barabasi_100nodes_network.content_distribution 	repo-19 	28
scalar barabasi_100nodes_network.content_distribution 	repo-20 	29
scalar barabasi_100nodes_network.content_distribution 	repo-21 	14
scalar barabasi_100nodes_network.content_distribution 	repo-22 	68
scalar barabasi_100nodes_network.content_distribution 	repo-23 	87
scalar barabasi_100nodes_network.content_distribution 	repo-24 	94
scalar barabasi_100nodes_network.content_distribution 	repo-25 	96
scalar barabasi_100nodes_network.content_distribution 	repo-26 	86
scalar barabasi_100nodes_network.content_distribution 	repo-27 	13
scalar barabasi_100nodes_network.content_distribution 	repo-28 	7
scalar barabasi_100nodes_network.content_distribution 	repo-29 	63
scalar barabasi_100nodes_network.content_distribution 	repo-30 	61
scalar barabasi_100nodes_network.content_distribution 	repo-31 	22
scalar barabasi_100nodes_network.content_distribution 	repo-32 	57
scalar barabasi_100nodes_network.content_distribution 	repo-33 	0
scalar barabasi_100nodes_network.content_distribution 	repo-34 	60
scalar barabasi_100nodes_network.content_distribution 	repo-35 	81
scalar barabasi_100nodes_network.content_distribution 	repo-36 	8
scalar barabasi_100nodes_network.content_distribution 	repo-37 	88
scalar barabasi_100nodes_network.content_distribution 	repo-38 	47
scalar barabasi_100nodes_network.content_distribution 	repo-39 	30
scalar barabasi_100nodes_network.content_distribution 	repo-40 	3
scalar barabasi_100nodes_network.content_distribution 	repo-41 	70
scalar barabasi_100nodes_network.content_distribution 	repo-42 	21
scalar barabasi_100nodes_network.content_distribution 	repo-43 	49
scalar barabasi_100nodes_network.content_distribution 	repo-44 	24
scalar barabasi_100nodes_network.content_distribution 	repo-45 	43
scalar barabasi_100nodes_network.content_distribution 	repo-46 	26
scalar barabasi_100nodes_network.content_distribution 	repo-47 	52
scalar barabasi_100nodes_network.content_distribution 	repo-48 	80
scalar barabasi_100nodes_network.content_distribution 	repo-49 	41
scalar barabasi_100nodes_network.content_distribution 	repo-50 	82
scalar barabasi_100nodes_network.content_distribution 	repo-51 	15
scalar barabasi_100nodes_network.content_distribution 	repo-52 	98
scalar barabasi_100nodes_network.content_distribution 	repo-53 	67
scalar barabasi_100nodes_network.content_distribution 	repo-54 	23
scalar barabasi_100nodes_network.content_distribution 	repo-55 	27
scalar barabasi_100nodes_network.content_distribution 	repo-56 	83
scalar barabasi_100nodes_network.content_distribution 	repo-57 	38
scalar barabasi_100nodes_network.content_distribution 	repo-58 	32
scalar barabasi_100nodes_network.content_distribution 	repo-59 	34
scalar barabasi_100nodes_network.content_distribution 	repo-60 	10
scalar barabasi_100nodes_network.content_distribution 	repo-61 	92
scalar barabasi_100nodes_network.content_distribution 	repo-62 	74
scalar barabasi_100nodes_network.content_distribution 	repo-63 	62
scalar barabasi_100nodes_network.content_distribution 	repo-64 	46
scalar barabasi_100nodes_network.content_distribution 	repo-65 	55
scalar barabasi_100nodes_network.content_distribution 	repo-66 	65
scalar barabasi_100nodes_network.content_distribution 	repo-67 	77
scalar barabasi_100nodes_network.content_distribution 	repo-68 	85
scalar barabasi_100nodes_network.content_distribution 	repo-69 	2
scalar barabasi_100nodes_network.content_distribution 	repo-70 	91
scalar barabasi_100nodes_network.content_distribution 	repo-71 	36
scalar barabasi_100nodes_network.content_distribution 	repo-72 	45
scalar barabasi_100nodes_network.content_distribution 	repo-73 	97
scalar barabasi_100nodes_network.content_distribution 	repo-74 	54
scalar barabasi_100nodes_network.content_distribution 	repo-75 	66
scalar barabasi_100nodes_network.content_distribution 	repo-76 	48
scalar barabasi_100nodes_network.content_distribution 	repo-77 	17
scalar barabasi_100nodes_network.content_distribution 	repo-78 	42
scalar barabasi_100nodes_network.content_distribution 	repo-79 	53
scalar barabasi_100nodes_network.content_distribution 	repo-80 	56
scalar barabasi_100nodes_network.content_distribution 	repo-81 	89
scalar barabasi_100nodes_network.content_distribution 	repo-82 	59
scalar barabasi_100nodes_network.content_distribution 	repo-83 	69
scalar barabasi_100nodes_network.content_distribution 	repo-84 	40
scalar barabasi_100nodes_network.content_distribution 	repo-85 	78
scalar barabasi_100nodes_network.content_distribution 	repo-86 	35
scalar barabasi_100nodes_network.content_distribution 	repo-87 	93
scalar barabasi_100nodes_network.content_distribution 	repo-88 	33
scalar barabasi_100nodes_network.content_distribution 	repo-89 	31
scalar barabasi_100nodes_network.content_distribution 	repo-90 	99
scalar barabasi_100nodes_network.content_distribution 	repo-91 	44
scalar barabasi_100nodes_network.content_distribution 	repo-92 	19
scalar barabasi_100nodes_network.content_distribution 	repo-93 	39
scalar barabasi_100nodes_network.content_distribution 	repo-94 	51
scalar barabasi_100nodes_network.content_distribution 	repo-95 	58
scalar barabasi_100nodes_network.content_distribution 	repo-96 	73
scalar barabasi_100nodes_network.content_distribution 	repo-97 	95
scalar barabasi_100nodes_network.content_distribution 	repo-98 	4
scalar barabasi_100nodes_network.content_distribution 	repo-99 	90
scalar barabasi_100nodes_network.content_distribution 	client-0 	27
scalar barabasi_100nodes_network.content_distribution 	client-1 	60
scalar barabasi_100nodes_network.content_distribution 	client-2 	12
scalar barabasi_100nodes_network.content_distribution 	client-3 	17
scalar barabasi_100nodes_network.content_distribution 	client-4 	71
scalar barabasi_100nodes_network.content_distribution 	client-5 	91
scalar barabasi_100nodes_network.content_distribution 	client-6 	7
scalar barabasi_100nodes_network.content_distribution 	client-7 	83
scalar barabasi_100nodes_network.content_distribution 	client-8 	56
scalar barabasi_100nodes_network.content_distribution 	client-9 	51
scalar barabasi_100nodes_network.content_distribution 	client-10 	32
scalar barabasi_100nodes_network.content_distribution 	client-11 	76
scalar barabasi_100nodes_network.content_distribution 	client-12 	62
scalar barabasi_100nodes_network.content_distribution 	client-13 	96
scalar barabasi_100nodes_network.content_distribution 	client-14 	30
scalar barabasi_100nodes_network.content_distribution 	client-15 	22
scalar barabasi_100nodes_network.content_distribution 	client-16 	5
scalar barabasi_100nodes_network.content_distribution 	client-17 	95
scalar barabasi_100nodes_network.content_distribution 	client-18 	18
scalar barabasi_100nodes_network.content_distribution 	client-19 	93
scalar barabasi_100nodes_network.content_distribution 	client-20 	29
scalar barabasi_100nodes_network.content_distribution 	client-21 	52
scalar barabasi_100nodes_network.content_distribution 	client-22 	31
scalar barabasi_100nodes_network.content_distribution 	client-23 	49
scalar barabasi_100nodes_network.content_distribution 	client-24 	98
scalar barabasi_100nodes_network.content_distribution 	client-25 	45
scalar barabasi_100nodes_network.content_distribution 	client-26 	86
scalar barabasi_100nodes_network.content_distribution 	client-27 	15
scalar barabasi_100nodes_network.content_distribution 	client-28 	48
scalar barabasi_100nodes_network.content_distribution 	client-29 	28
scalar barabasi_100nodes_network.content_distribution 	client-30 	43
scalar barabasi_100nodes_network.content_distribution 	client-31 	19
scalar barabasi_100nodes_network.content_distribution 	client-32 	79
scalar barabasi_100nodes_network.content_distribution 	client-33 	70
scalar barabasi_100nodes_network.content_distribution 	client-34 	88
scalar barabasi_100nodes_network.content_distribution 	client-35 	11
scalar barabasi_100nodes_network.content_distribution 	client-36 	65
scalar barabasi_100nodes_network.content_distribution 	client-37 	63
scalar barabasi_100nodes_network.content_distribution 	client-38 	42
scalar barabasi_100nodes_network.content_distribution 	client-39 	82
scalar barabasi_100nodes_network.content_distribution 	client-40 	40
scalar barabasi_100nodes_network.content_distribution 	client-41 	44
scalar barabasi_100nodes_network.content_distribution 	client-42 	16
scalar barabasi_100nodes_network.content_distribution 	client-43 	0
scalar barabasi_100nodes_network.content_distribution 	client-44 	97
scalar barabasi_100nodes_network.content_distribution 	client-45 	14
scalar barabasi_100nodes_network.content_distribution 	client-46 	36
scalar barabasi_100nodes_network.content_distribution 	client-47 	26
scalar barabasi_100nodes_network.content_distribution 	client-48 	1
scalar barabasi_100nodes_network.content_distribution 	client-49 	34
scalar barabasi_100nodes_network.content_distribution 	client-50 	94
scalar barabasi_100nodes_network.content_distribution 	client-51 	21
scalar barabasi_100nodes_network.content_distribution 	client-52 	68
scalar barabasi_100nodes_network.content_distribution 	client-53 	67
scalar barabasi_100nodes_network.content_distribution 	client-54 	64
scalar barabasi_100nodes_network.content_distribution 	client-55 	89
scalar barabasi_100nodes_network.content_distribution 	client-56 	33
scalar barabasi_100nodes_network.content_distribution 	client-57 	58
scalar barabasi_100nodes_network.content_distribution 	client-58 	4
scalar barabasi_100nodes_network.content_distribution 	client-59 	61
scalar barabasi_100nodes_network.content_distribution 	client-60 	50
scalar barabasi_100nodes_network.content_distribution 	client-61 	92
scalar barabasi_100nodes_network.content_distribution 	client-62 	25
scalar barabasi_100nodes_network.content_distribution 	client-63 	13
scalar barabasi_100nodes_network.content_distribution 	client-64 	38
scalar barabasi_100nodes_network.content_distribution 	client-65 	85
scalar barabasi_100nodes_network.content_distribution 	client-66 	84
scalar barabasi_100nodes_network.content_distribution 	client-67 	75
scalar barabasi_100nodes_network.content_distribution 	client-68 	99
scalar barabasi_100nodes_network.content_distribution 	client-69 	66
scalar barabasi_100nodes_network.content_distribution 	client-70 	74
scalar barabasi_100nodes_network.content_distribution 	client-71 	37
scalar barabasi_100nodes_network.content_distribution 	client-72 	72
scalar barabasi_100nodes_network.content_distribution 	client-73 	24
scalar barabasi_100nodes_network.content_distribution 	client-74 	41
scalar barabasi_100nodes_network.content_distribution 	client-75 	46
scalar barabasi_100nodes_network.content_distribution 	client-76 	35
scalar barabasi_100nodes_network.content_distribution 	client-77 	57
scalar barabasi_100nodes_network.content_distribution 	client-78 	6
scalar barabasi_100nodes_network.content_distribution 	client-79 	3
scalar barabasi_100nodes_network.content_distribution 	client-80 	20
scalar barabasi_100nodes_network.content_distribution 	client-81 	9
scalar barabasi_100nodes_network.content_distribution 	client-82 	90
scalar barabasi_100nodes_network.content_distribution 	client-83 	69
scalar barabasi_100nodes_network.content_distribution 	client-84 	23
scalar barabasi_100nodes_network.content_distribution 	client-85 	39
scalar barabasi_100nodes_network.content_distribution 	client-86 	87
scalar barabasi_100nodes_network.content_distribution 	client-87 	10
scalar barabasi_100nodes_network.content_distribution 	client-88 	78
scalar barabasi_100nodes_network.content_distribution 	client-89 	59
scalar barabasi_100nodes_network.content_distribution 	client-90 	53
scalar barabasi_100nodes_network.content_distribution 	client-91 	77
scalar barabasi_100nodes_network.content_distribution 	client-92 	55
scalar barabasi_100nodes_network.content_distribution 	client-93 	80
scalar barabasi_100nodes_network.content_distribution 	client-94 	47
scalar barabasi_100nodes_network.content_distribution 	client-95 	81
scalar barabasi_100nodes_network.content_distribution 	client-96 	54
scalar barabasi_100nodes_network.content_distribution 	client-97 	8
scalar barabasi_100nodes_network.content_distribution 	client-98 	73
scalar barabasi_100nodes_network.content_distribution 	client-99 	2
scalar barabasi_100nodes_network.content_distribution 	repo-0_card 	250050
scalar barabasi_100nodes_network.content_distribution 	repo-0_price 	0
scalar barabasi_100nodes_network.content_distribution 	repo-1_card 	250103
scalar barabasi_100nodes_network.content_distribution 	repo-1_price 	0
scalar barabasi_100nodes_network.content_distribution 	repo-2_card 	249952
scalar barabasi_100nodes_network.content_distribution 	repo-2_price 	0
scalar barabasi_100nodes_network.content_distribution 	repo-3_card 	249895
scalar barabasi_100nodes_network.content_distribution 	repo-3_price 	0
scalar barabasi_100nodes_network.content_distribution 	repo-4_card 	0
scalar barabasi_100nodes_network.content_distribution 	repo-4_price 	0
scalar barabasi_100nodes_network.content_distribution 	repo-5_card 	0
scalar barabasi_100nodes_network.content_distribution 	repo-5_price 	0
scalar barabasi_100nodes_network.content_distribution 	repo-6_card 	0
scalar barabasi_100nodes_network.content_distribution 	repo-6_price 	0
scalar barabasi_100nodes_network.content_distribution 	repo-7_card 	0
scalar barabasi_100nodes_network.content_distribution 	repo-7_price 	0
scalar barabasi_100nodes_network.content_distribution 	repo-8_card 	0
scalar barabasi_100nodes_network.content_distribution 	repo-8_price 	0
scalar barabasi_100nodes_network.content_distribution 	repo-9_card 	0
scalar barabasi_100nodes_network.content_distribution 	repo-9_price 	0
scalar barabasi_100nodes_network.content_distribution 	repo-10_card 	0
scalar barabasi_100nodes_network.content_distribution 	repo-10_price 	0
scalar barabasi_100nodes_network.content_distribution 	repo-11_card 	0
scalar barabasi_100nodes_network.content_distribution 	repo-11_price 	0
scalar barabasi_100nodes_network.content_distribution 	repo-12_card 	0
scalar barabasi_100nodes_network.content_distribution 	repo-12_price 	0
scalar barabasi_100nodes_network.content_distribution 	repo-13_card 	0
scalar barabasi_100nodes_network.content_distribution 	repo-13_price 	0
scalar barabasi_100nodes_network.content_distribution 	repo-14_card 	0
scalar barabasi_100nodes_network.content_distribution 	repo-14_price 	0
scalar barabasi_100nodes_network.content_distribution 	repo-15_card 	0
scalar barabasi_100nodes_network.content_distribution 	repo-15_price 	0
scalar barabasi_100nodes_network.content_distribution 	repo-16_card 	0
scalar barabasi_100nodes_network.content_distribution 	repo-16_price 	0
scalar barabasi_100nodes_network.content_distribution 	repo-17_card 	0
scalar barabasi_100nodes_network.content_distribution 	repo-17_price 	0
scalar barabasi_100nodes_network.content_distribution 	repo-18_card 	0
scalar barabasi_100nodes_network.content_distribution 	repo-18_price 	0
scalar barabasi_100nodes_network.content_distribution 	repo-19_card 	0
scalar barabasi_100nodes_network.content_distribution 	repo-19_price 	0
scalar barabasi_100nodes_network.content_distribution 	repo-20_card 	0
scalar barabasi_100nodes_network.content_distribution 	repo-20_price 	0
scalar barabasi_100nodes_network.content_distribution 	repo-21_card 	0
scalar barabasi_100nodes_network.content_distribution 	repo-21_price 	0
scalar barabasi_100nodes_network.content_distribution 	repo-22_card 	0
scalar barabasi_100nodes_network.content_distribution 	repo-22_price 	0
scalar barabasi_100nodes_network.content_distribution 	repo-23_card 	0
scalar barabasi_100nodes_network.content_distribution 	repo-23_price 	0
scalar barabasi_100nodes_network.content_distribution 	repo-24_card 	0
scalar barabasi_100nodes_network.content_distribution 	repo-24_price 	0
scalar barabasi_100nodes_network.content_distribution 	repo-25_card 	0
scalar barabasi_100nodes_network.content_distribution 	repo-25_price 	0
scalar barabasi_100nodes_network.content_distribution 	repo-26_card 	0
scalar barabasi_100nodes_network.content_distribution 	repo-26_price 	0
scalar barabasi_100nodes_network.content_distribution 	repo-27_card 	0
scalar barabasi_100nodes_network.content_distribution 	repo-27_price 	0
scalar barabasi_100nodes_network.content_distribution 	repo-28_card 	0
scalar barabasi_100nodes_network.content_distribution 	repo-28_price 	0
scalar barabasi_100nodes_network.content_distribution 	repo-29_card 	0
scalar barabasi_100nodes_network.content_distribution 	repo-29_price 	0
scalar barabasi_100nodes_network.content_distribution 	repo-30_card 	0
scalar barabasi_100nodes_network.content_distribution 	repo-30_price 	0
scalar barabasi_100nodes_network.content_distribution 	repo-31_card 	0
scalar barabasi_100nodes_network.content_distribution 	repo-31_price 	0
scalar barabasi_100nodes_network.content_distribution 	repo-32_card 	0
scalar barabasi_100nodes_network.content_distribution 	repo-32_price 	0
scalar barabasi_100nodes_network.content_distribution 	repo-33_card 	0
scalar barabasi_100nodes_network.content_distribution 	repo-33_price 	0
scalar barabasi_100nodes_network.content_distribution 	repo-34_card 	0
scalar barabasi_100nodes_network.content_distribution 	repo-34_price 	0
scalar barabasi_100nodes_network.content_distribution 	repo-35_card 	0
scalar barabasi_100nodes_network.content_distribution 	repo-35_price 	0
scalar barabasi_100nodes_network.content_distribution 	repo-36_card 	0
scalar barabasi_100nodes_network.content_distribution 	repo-36_price 	0
scalar barabasi_100nodes_network.content_distribution 	repo-37_card 	0
scalar barabasi_100nodes_network.content_distribution 	repo-37_price 	0
scalar barabasi_100nodes_network.content_distribution 	repo-38_card 	0
scalar barabasi_100nodes_network.content_distribution 	repo-38_price 	0
scalar barabasi_100nodes_network.content_distribution 	repo-39_card 	0
scalar barabasi_100nodes_network.content_distribution 	repo-39_price 	0
scalar barabasi_100nodes_network.content_distribution 	repo-40_card 	0
scalar barabasi_100nodes_network.content_distribution 	repo-40_price 	0
scalar barabasi_100nodes_network.content_distribution 	repo-41_card 	0
scalar barabasi_100nodes_network.content_distribution 	repo-41_price 	0
scalar barabasi_100nodes_network.content_distribution 	repo-42_card 	0
scalar barabasi_100nodes_network.content_distribution 	repo-42_price 	0
scalar barabasi_100nodes_network.content_distribution 	repo-43_card 	0
scalar barabasi_100nodes_network.content_distribution 	repo-43_price 	0
scalar barabasi_100nodes_network.content_distribution 	repo-44_card 	0
scalar barabasi_100nodes_network.content_distribution 	repo-44_price 	0
scalar barabasi_100nodes_network.content_distribution 	repo-45_card 	0
scalar barabasi_100nodes_network.content_distribution 	repo-45_price 	0
scalar barabasi_100nodes_network.content_distribution 	repo-46_card 	0
scalar barabasi_100nodes_network.content_distribution 	repo-46_price 	0
scalar barabasi_100nodes_network.content_distribution 	repo-47_card 	0
scalar barabasi_100nodes_network.content_distribution 	repo-47_price 	0
scalar barabasi_100nodes_network.content_distribution 	repo-48_card 	0
scalar barabasi_100nodes_network.content_distribution 	repo-48_price 	0
scalar barabasi_100nodes_network.content_distribution 	repo-49_card 	0
scalar barabasi_100nodes_network.content_distribution 	repo-49_price 	0
scalar barabasi_100nodes_network.content_distribution 	repo-50_card 	0
scalar barabasi_100nodes_network.content_distribution 	repo-50_price 	0
scalar barabasi_100nodes_network.content_distribution 	repo-51_card 	0
scalar barabasi_100nodes_network.content_distribution 	repo-51_price 	0
scalar barabasi_100nodes_network.content_distribution 	repo-52_card 	0
scalar barabasi_100nodes_network.content_distribution 	repo-52_price 	0
scalar barabasi_100nodes_network.content_distribution 	repo-53_card 	0
scalar barabasi_100nodes_network.content_distribution 	repo-53_price 	0
scalar barabasi_100nodes_network.content_distribution 	repo-54_card 	0
scalar barabasi_100nodes_network.content_distribution 	repo-54_price 	0
scalar barabasi_100nodes_network.content_distribution 	repo-55_card 	0
scalar barabasi_100nodes_network.content_distribution 	repo-55_price 	0
scalar barabasi_100nodes_network.content_distribution 	repo-56_card 	0
scalar barabasi_100nodes_network.content_distribution 	repo-56_price 	0
scalar barabasi_100nodes_network.content_distribution 	repo-57_card 	0
scalar barabasi_100nodes_network.content_distribution 	repo-57_price 	0
scalar barabasi_100nodes_network.content_distribution 	repo-58_card 	0
scalar barabasi_100nodes_network.content_distribution 	repo-58_price 	0
scalar barabasi_100nodes_network.content_distribution 	repo-59_card 	0
scalar barabasi_100nodes_network.content_distribution 	repo-59_price 	0
scalar barabasi_100nodes_network.content_distribution 	repo-60_card 	0
scalar barabasi_100nodes_network.content_distribution 	repo-60_price 	0
scalar barabasi_100nodes_network.content_distribution 	repo-61_card 	0
scalar barabasi_100nodes_network.content_distribution 	repo-61_price 	0
scalar barabasi_100nodes_network.content_distribution 	repo-62_card 	0
scalar barabasi_100nodes_network.content_distribution 	repo-62_price 	0
scalar barabasi_100nodes_network.content_distribution 	repo-63_card 	0
scalar barabasi_100nodes_network.content_distribution 	repo-63_price 	0
scalar barabasi_100nodes_network.content_distribution 	repo-64_card 	0
scalar barabasi_100nodes_network.content_distribution 	repo-64_price 	0
scalar barabasi_100nodes_network.content_distribution 	repo-65_card 	0
scalar barabasi_100nodes_network.content_distribution 	repo-65_price 	0
scalar barabasi_100nodes_network.content_distribution 	repo-66_card 	0
scalar barabasi_100nodes_network.content_distribution 	repo-66_price 	0
scalar barabasi_100nodes_network.content_distribution 	repo-67_card 	0
scalar barabasi_100nodes_network.content_distribution 	repo-67_price 	0
scalar barabasi_100nodes_network.content_distribution 	repo-68_card 	0
scalar barabasi_100nodes_network.content_distribution 	repo-68_price 	0
scalar barabasi_100nodes_network.content_distribution 	repo-69_card 	0
scalar barabasi_100nodes_network.content_distribution 	repo-69_price 	0
scalar barabasi_100nodes_network.content_distribution 	repo-70_card 	0
scalar barabasi_100nodes_network.content_distribution 	repo-70_price 	0
scalar barabasi_100nodes_network.content_distribution 	repo-71_card 	0
scalar barabasi_100nodes_network.content_distribution 	repo-71_price 	0
scalar barabasi_100nodes_network.content_distribution 	repo-72_card 	0
scalar barabasi_100nodes_network.content_distribution 	repo-72_price 	0
scalar barabasi_100nodes_network.content_distribution 	repo-73_card 	0
scalar barabasi_100nodes_network.content_distribution 	repo-73_price 	0
scalar barabasi_100nodes_network.content_distribution 	repo-74_card 	0
scalar barabasi_100nodes_network.content_distribution 	repo-74_price 	0
scalar barabasi_100nodes_network.content_distribution 	repo-75_card 	0
scalar barabasi_100nodes_network.content_distribution 	repo-75_price 	0
scalar barabasi_100nodes_network.content_distribution 	repo-76_card 	0
scalar barabasi_100nodes_network.content_distribution 	repo-76_price 	0
scalar barabasi_100nodes_network.content_distribution 	repo-77_card 	0
scalar barabasi_100nodes_network.content_distribution 	repo-77_price 	0
scalar barabasi_100nodes_network.content_distribution 	repo-78_card 	0
scalar barabasi_100nodes_network.content_distribution 	repo-78_price 	0
scalar barabasi_100nodes_network.content_distribution 	repo-79_card 	0
scalar barabasi_100nodes_network.content_distribution 	repo-79_price 	0
scalar barabasi_100nodes_network.content_distribution 	repo-80_card 	0
scalar barabasi_100nodes_network.content_distribution 	repo-80_price 	0
scalar barabasi_100nodes_network.content_distribution 	repo-81_card 	0
scalar barabasi_100nodes_network.content_distribution 	repo-81_price 	0
scalar barabasi_100nodes_network.content_distribution 	repo-82_card 	0
scalar barabasi_100nodes_network.content_distribution 	repo-82_price 	0
scalar barabasi_100nodes_network.content_distribution 	repo-83_card 	0
scalar barabasi_100nodes_network.content_distribution 	repo-83_price 	0
scalar barabasi_100nodes_network.content_distribution 	repo-84_card 	0
scalar barabasi_100nodes_network.content_distribution 	repo-84_price 	0
scalar barabasi_100nodes_network.content_distribution 	repo-85_card 	0
scalar barabasi_100nodes_network.content_distribution 	repo-85_price 	0
scalar barabasi_100nodes_network.content_distribution 	repo-86_card 	0
scalar barabasi_100nodes_network.content_distribution 	repo-86_price 	0
scalar barabasi_100nodes_network.content_distribution 	repo-87_card 	0
scalar barabasi_100nodes_network.content_distribution 	repo-87_price 	0
scalar barabasi_100nodes_network.content_distribution 	repo-88_card 	0
scalar barabasi_100nodes_network.content_distribution 	repo-88_price 	0
scalar barabasi_100nodes_network.content_distribution 	repo-89_card 	0
scalar barabasi_100nodes_network.content_distribution 	repo-89_price 	0
scalar barabasi_100nodes_network.content_distribution 	repo-90_card 	0
scalar barabasi_100nodes_network.content_distribution 	repo-90_price 	0
scalar barabasi_100nodes_network.content_distribution 	repo-91_card 	0
scalar barabasi_100nodes_network.content_distribution 	repo-91_price 	0
scalar barabasi_100nodes_network.content_distribution 	repo-92_card 	0
scalar barabasi_100nodes_network.content_distribution 	repo-92_price 	0
scalar barabasi_100nodes_network.content_distribution 	repo-93_card 	0
scalar barabasi_100nodes_network.content_distribution 	repo-93_price 	0
scalar barabasi_100nodes_network.content_distribution 	repo-94_card 	0
scalar barabasi_100nodes_network.content_distribution 	repo-94_price 	0
scalar barabasi_100nodes_network.content_distribution 	repo-95_card 	0
scalar barabasi_100nodes_network.content_distribution 	repo-95_price 	0
scalar barabasi_100nodes_network.content_distribution 	repo-96_card 	0
scalar barabasi_100nodes_network.content_distribution 	repo-96_price 	0
scalar barabasi_100nodes_network.content_distribution 	repo-97_card 	0
scalar barabasi_100nodes_network.content_distribution 	repo-97_price 	0
scalar barabasi_100nodes_network.content_distribution 	repo-98_card 	0
scalar barabasi_100nodes_network.content_distribution 	repo-98_price 	0
scalar barabasi_100nodes_network.content_distribution 	repo-99_card 	0
scalar barabasi_100nodes_network.content_distribution 	repo-99_price 	0
scalar barabasi_100nodes_network.statistics 	stabilization_time 	352.8
scalar barabasi_100nodes_network.statistics 	p_hit 	0.1206586499767
scalar barabasi_100nodes_network.statistics 	interests 	937495.82
scalar barabasi_100nodes_network.statistics 	data 	473464.81
scalar barabasi_100nodes_network.statistics 	hdistance 	1.7954289326046
scalar barabasi_100nodes_network.statistics 	avg_time 	0
scalar barabasi_100nodes_network.statistics 	downloads 	17998227
scalar barabasi_100nodes_network.statistics 	total_cost 	0
scalar barabasi_100nodes_network.statistics 	total_replicas 	1000000
scalar barabasi_100nodes_network.statistics 	"representations_downloaded 0.37151:0:0:0:0.62849:" 	0
scalar barabasi_100nodes_network.statistics 	"slots_per_representation 100:233:500:833:1167:" 	0
scalar barabasi_100nodes_network.statistics 	inner_hit 	238.55825682163
scalar barabasi_100nodes_network.statistics 	execution_time 	1165
scalar barabasi_100nodes_network.node[0].core_layer 	interests[0] 	11779073
scalar barabasi_100nodes_network.node[0].core_layer 	repo_load[0] 	1500133
scalar barabasi_100nodes_network.node[0].core_layer 	data[0] 	6713516
scalar barabasi_100nodes_network.node[0].core_layer 	slots_sent[face$o[1]->client[0]] 	103172959
scalar barabasi_100nodes_network.node[0].core_layer 	slots_sent[face$o[2]->node[1]] 	101558767
scalar barabasi_100nodes_network.node[0].core_layer 	slots_sent[face$o[3]->node[2]] 	3118707329
scalar barabasi_100nodes_network.node[0].core_layer 	slots_sent[face$o[4]->node[5]] 	319667618
scalar barabasi_100nodes_network.node[0].core_layer 	slots_sent[face$o[5]->node[10]] 	196786066
scalar barabasi_100nodes_network.node[0].core_layer 	slots_sent[face$o[6]->node[11]] 	100536829
scalar barabasi_100nodes_network.node[0].core_layer 	slots_sent[face$o[7]->node[15]] 	287167832
scalar barabasi_100nodes_network.node[0].core_layer 	slots_sent[face$o[8]->node[21]] 	261244388
scalar barabasi_100nodes_network.node[0].core_layer 	slots_sent[face$o[9]->node[22]] 	101615446
scalar barabasi_100nodes_network.node[0].core_layer 	slots_sent[face$o[10]->node[28]] 	101397220
scalar barabasi_100nodes_network.node[0].core_layer 	slots_sent[face$o[11]->node[37]] 	71882297
scalar barabasi_100nodes_network.node[0].core_layer 	slots_sent[face$o[12]->node[44]] 	101054031
scalar barabasi_100nodes_network.node[0].core_layer 	slots_sent[face$o[13]->node[58]] 	195905495
scalar barabasi_100nodes_network.node[0].core_layer 	slots_sent[face$o[14]->node[73]] 	140357002
scalar barabasi_100nodes_network.node[0].core_layer 	slots_sent[face$o[15]->node[74]] 	101399059
scalar barabasi_100nodes_network.node[0].core_layer 	slots_sent[face$o[16]->node[93]] 	100553497
scalar barabasi_100nodes_network.node[0].content_store 	p_hit[0] 	0.034237414098716
scalar barabasi_100nodes_network.node[0].content_store 	hits[0] 	403285
scalar barabasi_100nodes_network.node[0].content_store 	misses[0] 	11375788
scalar barabasi_100nodes_network.node[0].content_store 	decision_yes[0] 	3493067
scalar barabasi_100nodes_network.node[0].content_store 	decision_no[0] 	4720582
scalar barabasi_100nodes_network.node[0].content_store 	decision_ratio[0] 	0.42527590356004
scalar barabasi_100nodes_network.node[0].proactive_component 	hdistance[0].proactive_component 	2.4161287881511
scalar barabasi_100nodes_network.node[0].proactive_component 	downloads[0].proactive_component 	4479791
scalar barabasi_100nodes_network.node[0].proactive_component 	avg_time[0].proactive_component 	0
scalar barabasi_100nodes_network.node[1].core_layer 	interests[1] 	247144
scalar barabasi_100nodes_network.node[1].core_layer 	data[1] 	148106
scalar barabasi_100nodes_network.node[1].core_layer 	slots_sent[face$o[1]->client[1]] 	139174678
scalar barabasi_100nodes_network.node[1].core_layer 	slots_sent[face$o[2]->node[0]] 	0
scalar barabasi_100nodes_network.node[1].content_store 	p_hit[1] 	0.40072993882109
scalar barabasi_100nodes_network.node[1].content_store 	hits[1] 	99038
scalar barabasi_100nodes_network.node[1].content_store 	misses[1] 	148106
scalar barabasi_100nodes_network.node[1].content_store 	decision_yes[1] 	81301
scalar barabasi_100nodes_network.node[1].content_store 	decision_no[1] 	66805
scalar barabasi_100nodes_network.node[1].content_store 	decision_ratio[1] 	0.54893792283905
scalar barabasi_100nodes_network.node[1].proactive_component 	hdistance[1].proactive_component 	3.3675551905224
scalar barabasi_100nodes_network.node[1].proactive_component 	downloads[1].proactive_component 	80358
scalar barabasi_100nodes_network.node[1].proactive_component 	avg_time[1].proactive_component 	0
scalar barabasi_100nodes_network.node[2].core_layer 	interests[2] 	14444262
scalar barabasi_100nodes_network.node[2].core_layer 	data[2] 	9501773
scalar barabasi_100nodes_network.node[2].core_layer 	slots_sent[face$o[1]->client[2]] 	130811125
scalar barabasi_100nodes_network.node[2].core_layer 	slots_sent[face$o[2]->node[0]] 	590100926
scalar barabasi_100nodes_network.node[2].core_layer 	slots_sent[face$o[3]->node[3]] 	195191877
scalar barabasi_100nodes_network.node[2].core_layer 	slots_sent[face$o[4]->node[4]] 	401035323
scalar barabasi_100nodes_network.node[2].core_layer 	slots_sent[face$o[5]->node[6]] 	100463635
scalar barabasi_100nodes_network.node[2].core_layer 	slots_sent[face$o[6]->node[7]] 	1085972870
scalar barabasi_100nodes_network.node[2].core_layer 	slots_sent[face$o[7]->node[8]] 	571382667
scalar barabasi_100nodes_network.node[2].core_layer 	slots_sent[face$o[8]->node[13]] 	439616740
scalar barabasi_100nodes_network.node[2].core_layer 	slots_sent[face$o[9]->node[16]] 	643500809
scalar barabasi_100nodes_network.node[2].core_layer 	slots_sent[face$o[10]->node[18]] 	320134757
scalar barabasi_100nodes_network.node[2].core_layer 	slots_sent[face$o[11]->node[25]] 	194823677
scalar barabasi_100nodes_network.node[2].core_layer 	slots_sent[face$o[12]->node[26]] 	326036107
scalar barabasi_100nodes_network.node[2].core_layer 	slots_sent[face$o[13]->node[29]] 	100016584
scalar barabasi_100nodes_network.node[2].core_layer 	slots_sent[face$o[14]->node[32]] 	286443546
scalar barabasi_100nodes_network.node[2].core_layer 	slots_sent[face$o[15]->node[33]] 	100606771
scalar barabasi_100nodes_network.node[2].core_layer 	slots_sent[face$o[16]->node[34]] 	100547361
scalar barabasi_100nodes_network.node[2].core_layer 	slots_sent[face$o[17]->node[36]] 	194623690
scalar barabasi_100nodes_network.node[2].core_layer 	slots_sent[face$o[18]->node[41]] 	620483286
scalar barabasi_100nodes_network.node[2].core_layer 	slots_sent[face$o[19]->node[45]] 	100599805
scalar barabasi_100nodes_network.node[2].core_layer 	slots_sent[face$o[20]->node[59]] 	100570865
scalar barabasi_100nodes_network.node[2].core_layer 	slots_sent[face$o[21]->node[62]] 	287827348
scalar barabasi_100nodes_network.node[2].core_layer 	slots_sent[face$o[22]->node[79]] 	100496471
scalar barabasi_100nodes_network.node[2].content_store 	p_hit[2] 	0.041639510554433
scalar barabasi_100nodes_network.node[2].content_store 	hits[2] 	601452
scalar barabasi_100nodes_network.node[2].content_store 	misses[2] 	13842810
scalar barabasi_100nodes_network.node[2].content_store 	decision_yes[2] 	5085852
scalar barabasi_100nodes_network.node[2].content_store 	decision_no[2] 	4415921
scalar barabasi_100nodes_network.node[2].content_store 	decision_ratio[2] 	0.53525294700263
scalar barabasi_100nodes_network.node[2].proactive_component 	hdistance[2].proactive_component 	3.231249418018
scalar barabasi_100nodes_network.node[2].proactive_component 	downloads[2].proactive_component 	5294409
scalar barabasi_100nodes_network.node[2].proactive_component 	avg_time[2].proactive_component 	0
scalar barabasi_100nodes_network.node[3].core_layer 	interests[3] 	441416
scalar barabasi_100nodes_network.node[3].core_layer 	data[3] 	278532
scalar barabasi_100nodes_network.node[3].core_layer 	slots_sent[face$o[1]->client[3]] 	142727274
scalar barabasi_100nodes_network.node[3].core_layer 	slots_sent[face$o[2]->node[2]] 	0
scalar barabasi_100nodes_network.node[3].core_layer 	slots_sent[face$o[3]->node[52]] 	100525164
scalar barabasi_100nodes_network.node[3].content_store 	p_hit[3] 	0.2355510448194
scalar barabasi_100nodes_network.node[3].content_store 	hits[3] 	103976
scalar barabasi_100nodes_network.node[3].content_store 	misses[3] 	337440
scalar barabasi_100nodes_network.node[3].content_store 	decision_yes[3] 	156831
scalar barabasi_100nodes_network.node[3].content_store 	decision_no[3] 	121701
scalar barabasi_100nodes_network.node[3].content_store 	decision_ratio[3] 	0.56306277196157
scalar barabasi_100nodes_network.node[3].proactive_component 	hdistance[3].proactive_component 	4.2399665035316
scalar barabasi_100nodes_network.node[3].proactive_component 	downloads[3].proactive_component 	145687
scalar barabasi_100nodes_network.node[3].proactive_component 	avg_time[3].proactive_component 	0
scalar barabasi_100nodes_network.node[4].core_layer 	interests[4] 	1299071
scalar barabasi_100nodes_network.node[4].core_layer 	repo_load[4] 	397368
scalar barabasi_100nodes_network.node[4].core_layer 	data[4] 	583480
scalar barabasi_100nodes_network.node[4].core_layer 	slots_sent[face$o[1]->client[4]] 	106316940
scalar barabasi_100nodes_network.node[4].core_layer 	slots_sent[face$o[2]->node[2]] 	0
scalar barabasi_100nodes_network.node[4].core_layer 	slots_sent[face$o[3]->node[27]] 	194180065
scalar barabasi_100nodes_network.node[4].core_layer 	slots_sent[face$o[4]->node[30]] 	195462177
scalar barabasi_100nodes_network.node[4].core_layer 	slots_sent[face$o[5]->node[85]] 	100528871
scalar barabasi_100nodes_network.node[4].content_store 	p_hit[4] 	0.079458320599875
scalar barabasi_100nodes_network.node[4].content_store 	hits[4] 	103222
scalar barabasi_100nodes_network.node[4].content_store 	misses[4] 	1195849
scalar barabasi_100nodes_network.node[4].content_store 	decision_yes[4] 	321169
scalar barabasi_100nodes_network.node[4].content_store 	decision_no[4] 	659679
scalar barabasi_100nodes_network.node[4].content_store 	decision_ratio[4] 	0.32744013343556
scalar barabasi_100nodes_network.node[4].proactive_component 	hdistance[4].proactive_component 	3.1138525414435
scalar barabasi_100nodes_network.node[4].proactive_component 	downloads[4].proactive_component 	494227
scalar barabasi_100nodes_network.node[4].proactive_component 	avg_time[4].proactive_component 	0
scalar barabasi_100nodes_network.node[5].core_layer 	interests[5] 	4999847
scalar barabasi_100nodes_network.node[5].core_layer 	data[5] 	3232589
scalar barabasi_100nodes_network.node[5].core_layer 	slots_sent[face$o[1]->client[5]] 	118125806
scalar barabasi_100nodes_network.node[5].core_layer 	slots_sent[face$o[2]->node[0]] 	1883658531
scalar barabasi_100nodes_network.node[5].core_layer 	slots_sent[face$o[3]->node[9]] 	72413909
scalar barabasi_100nodes_network.node[5].core_layer 	slots_sent[face$o[4]->node[35]] 	195833871
scalar barabasi_100nodes_network.node[5].content_store 	p_hit[5] 	0.051360571633492
scalar barabasi_100nodes_network.node[5].content_store 	hits[5] 	256795
scalar barabasi_100nodes_network.node[5].content_store 	misses[5] 	4743052
scalar barabasi_100nodes_network.node[5].content_store 	decision_yes[5] 	1636891
scalar barabasi_100nodes_network.node[5].content_store 	decision_no[5] 	1595698
scalar barabasi_100nodes_network.node[5].content_store 	decision_ratio[5] 	0.50637151830932
scalar barabasi_100nodes_network.node[5].proactive_component 	hdistance[5].proactive_component 	2.1571777745826
scalar barabasi_100nodes_network.node[5].proactive_component 	downloads[5].proactive_component 	1912675
scalar barabasi_100nodes_network.node[5].proactive_component 	avg_time[5].proactive_component 	0
scalar barabasi_100nodes_network.node[6].core_layer 	interests[6] 	241209
scalar barabasi_100nodes_network.node[6].core_layer 	data[6] 	142447
scalar barabasi_100nodes_network.node[6].core_layer 	slots_sent[face$o[1]->client[6]] 	143782675
scalar barabasi_100nodes_network.node[6].core_layer 	slots_sent[face$o[2]->node[2]] 	0
scalar barabasi_100nodes_network.node[6].content_store 	p_hit[6] 	0.40944575036587
scalar barabasi_100nodes_network.node[6].content_store 	hits[6] 	98762
scalar barabasi_100nodes_network.node[6].content_store 	misses[6] 	142447
scalar barabasi_100nodes_network.node[6].content_store 	decision_yes[6] 	80805
scalar barabasi_100nodes_network.node[6].content_store 	decision_no[6] 	61642
scalar barabasi_100nodes_network.node[6].content_store 	decision_ratio[6] 	0.56726361383532
scalar barabasi_100nodes_network.node[6].proactive_component 	hdistance[6].proactive_component 	4.2404587379297
scalar barabasi_100nodes_network.node[6].proactive_component 	downloads[6].proactive_component 	73942
scalar barabasi_100nodes_network.node[6].proactive_component 	avg_time[6].proactive_component 	0
scalar barabasi_100nodes_network.node[7].core_layer 	interests[7] 	2372396
scalar barabasi_100nodes_network.node[7].core_layer 	data[7] 	1578856
scalar barabasi_100nodes_network.node[7].core_layer 	slots_sent[face$o[1]->client[7]] 	139761224
scalar barabasi_100nodes_network.node[7].core_layer 	slots_sent[face$o[2]->node[2]] 	0
scalar barabasi_100nodes_network.node[7].core_layer 	slots_sent[face$o[3]->node[23]] 	595360046
scalar barabasi_100nodes_network.node[7].core_layer 	slots_sent[face$o[4]->node[31]] 	278672347
scalar barabasi_100nodes_network.node[7].core_layer 	slots_sent[face$o[5]->node[49]] 	99603520
scalar barabasi_100nodes_network.node[7].core_layer 	slots_sent[face$o[6]->node[90]] 	71180231
scalar barabasi_100nodes_network.node[7].content_store 	p_hit[7] 	0.063600680493476
scalar barabasi_100nodes_network.node[7].content_store 	hits[7] 	150886
scalar barabasi_100nodes_network.node[7].content_store 	misses[7] 	2221510
scalar barabasi_100nodes_network.node[7].content_store 	decision_yes[7] 	869810
scalar barabasi_100nodes_network.node[7].content_store 	decision_no[7] 	709046
scalar barabasi_100nodes_network.node[7].content_store 	decision_ratio[7] 	0.55091154608147
scalar barabasi_100nodes_network.node[7].proactive_component 	hdistance[7].proactive_component 	4.2528805586422
scalar barabasi_100nodes_network.node[7].proactive_component 	downloads[7].proactive_component 	849488
scalar barabasi_100nodes_network.node[7].proactive_component 	avg_time[7].proactive_component 	0
scalar barabasi_100nodes_network.node[8].core_layer 	interests[8] 	4630925
scalar barabasi_100nodes_network.node[8].core_layer 	data[8] 	2986707
scalar barabasi_100nodes_network.node[8].core_layer 	slots_sent[face$o[1]->client[8]] 	132372778
scalar barabasi_100nodes_network.node[8].core_layer 	slots_sent[face$o[2]->node[2]] 	1409940169
scalar barabasi_100nodes_network.node[8].core_layer 	slots_sent[face$o[3]->node[12]] 	71659505
scalar barabasi_100nodes_network.node[8].core_layer 	slots_sent[face$o[4]->node[14]] 	100999160
scalar barabasi_100nodes_network.node[8].core_layer 	slots_sent[face$o[5]->node[17]] 	100074680
scalar barabasi_100nodes_network.node[8].core_layer 	slots_sent[face$o[6]->node[39]] 	168688791
scalar barabasi_100nodes_network.node[8].core_layer 	slots_sent[face$o[7]->node[61]] 	101234927
scalar barabasi_100nodes_network.node[8].core_layer 	slots_sent[face$o[8]->node[66]] 	101030235
scalar barabasi_100nodes_network.node[8].content_store 	p_hit[8] 	0.059584208338507
scalar barabasi_100nodes_network.node[8].content_store 	hits[8] 	275930
scalar barabasi_100nodes_network.node[8].content_store 	misses[8] 	4354995
scalar barabasi_100nodes_network.node[8].content_store 	decision_yes[8] 	1546112
scalar barabasi_100nodes_network.node[8].content_store 	decision_no[8] 	1440595
scalar barabasi_100nodes_network.node[8].content_store 	decision_ratio[8] 	0.51766443779052
scalar barabasi_100nodes_network.node[8].proactive_component 	hdistance[8].proactive_component 	2.5730328036837
scalar barabasi_100nodes_network.node[8].proactive_component 	downloads[8].proactive_component 	1727306
scalar barabasi_100nodes_network.node[8].proactive_component 	avg_time[8].proactive_component 	0
scalar barabasi_100nodes_network.node[9].core_layer 	interests[9] 	4420024
scalar barabasi_100nodes_network.node[9].core_layer 	repo_load[9] 	4236729
scalar barabasi_100nodes_network.node[9].core_layer 	data[9] 	107125
scalar barabasi_100nodes_network.node[9].core_layer 	slots_sent[face$o[1]->client[9]] 	108409433
scalar barabasi_100nodes_network.node[9].core_layer 	slots_sent[face$o[2]->node[5]] 	1750153979
scalar barabasi_100nodes_network.node[9].content_store 	p_hit[9] 	0.017232938101694
scalar barabasi_100nodes_network.node[9].content_store 	hits[9] 	76170
scalar barabasi_100nodes_network.node[9].content_store 	misses[9] 	4343854
scalar barabasi_100nodes_network.node[9].content_store 	decision_yes[9] 	57827
scalar barabasi_100nodes_network.node[9].content_store 	decision_no[9] 	4286027
scalar barabasi_100nodes_network.node[9].content_store 	decision_ratio[9] 	0.013312371916736
scalar barabasi_100nodes_network.node[9].proactive_component 	hdistance[9].proactive_component 	1.107170561797
scalar barabasi_100nodes_network.node[9].proactive_component 	downloads[9].proactive_component 	1769945
scalar barabasi_100nodes_network.node[9].proactive_component 	avg_time[9].proactive_component 	0
scalar barabasi_100nodes_network.node[10].core_layer 	interests[10] 	454986
scalar barabasi_100nodes_network.node[10].core_layer 	data[10] 	288424
scalar barabasi_100nodes_network.node[10].core_layer 	slots_sent[face$o[1]->client[10]] 	136828459
scalar barabasi_100nodes_network.node[10].core_layer 	slots_sent[face$o[2]->node[0]] 	0
scalar barabasi_100nodes_network.node[10].core_layer 	slots_sent[face$o[3]->node[71]] 	101428119
scalar barabasi_100nodes_network.node[10].content_store 	p_hit[10] 	0.22869055311592
scalar barabasi_100nodes_network.node[10].content_store 	hits[10] 	104051
scalar barabasi_100nodes_network.node[10].content_store 	misses[10] 	350935
scalar barabasi_100nodes_network.node[10].content_store 	decision_yes[10] 	157398
scalar barabasi_100nodes_network.node[10].content_store 	decision_no[10] 	131026
scalar barabasi_100nodes_network.node[10].content_store 	decision_ratio[10] 	0.54571741602641
scalar barabasi_100nodes_network.node[10].proactive_component 	hdistance[10].proactive_component 	3.3722853990344
scalar barabasi_100nodes_network.node[10].proactive_component 	downloads[10].proactive_component 	156791
scalar barabasi_100nodes_network.node[10].proactive_component 	avg_time[10].proactive_component 	0
scalar barabasi_100nodes_network.node[11].core_layer 	interests[11] 	245161
scalar barabasi_100nodes_network.node[11].core_layer 	data[11] 	146572
scalar barabasi_100nodes_network.node[11].core_layer 	slots_sent[face$o[1]->client[11]] 	138468997
scalar barabasi_100nodes_network.node[11].core_layer 	slots_sent[face$o[2]->node[0]] 	0
scalar barabasi_100nodes_network.node[11].content_store 	p_hit[11] 	0.40213981832347
scalar barabasi_100nodes_network.node[11].content_store 	hits[11] 	98589
scalar barabasi_100nodes_network.node[11].content_store 	misses[11] 	146572
scalar barabasi_100nodes_network.node[11].content_store 	decision_yes[11] 	80487
scalar barabasi_100nodes_network.node[11].content_store 	decision_no[11] 	66085
scalar barabasi_100nodes_network.node[11].content_store 	decision_ratio[11] 	0.54912943809186
scalar barabasi_100nodes_network.node[11].proactive_component 	hdistance[11].proactive_component 	3.3663003202914
scalar barabasi_100nodes_network.node[11].proactive_component 	downloads[11].proactive_component 	79615
scalar barabasi_100nodes_network.node[11].proactive_component 	avg_time[11].proactive_component 	0
scalar barabasi_100nodes_network.node[12].core_layer 	interests[12] 	3526951
scalar barabasi_100nodes_network.node[12].core_layer 	repo_load[12] 	3345731
scalar barabasi_100nodes_network.node[12].core_layer 	data[12] 	101843
scalar barabasi_100nodes_network.node[12].core_layer 	slots_sent[face$o[1]->client[12]] 	116943288
scalar barabasi_100nodes_network.node[12].core_layer 	slots_sent[face$o[2]->node[8]] 	1376989537
scalar barabasi_100nodes_network.node[12].content_store 	p_hit[12] 	0.022505841447755
scalar barabasi_100nodes_network.node[12].content_store 	hits[12] 	79377
scalar barabasi_100nodes_network.node[12].content_store 	misses[12] 	3447574
scalar barabasi_100nodes_network.node[12].content_store 	decision_yes[12] 	57615
scalar barabasi_100nodes_network.node[12].content_store 	decision_no[12] 	3389959
scalar barabasi_100nodes_network.node[12].content_store 	decision_ratio[12] 	0.016711751509902
scalar barabasi_100nodes_network.node[12].proactive_component 	hdistance[12].proactive_component 	1.1632016838849
scalar barabasi_100nodes_network.node[12].proactive_component 	downloads[12].proactive_component 	1407222
scalar barabasi_100nodes_network.node[12].proactive_component 	avg_time[12].proactive_component 	0
scalar barabasi_100nodes_network.node[13].core_layer 	interests[13] 	966199
scalar barabasi_100nodes_network.node[13].core_layer 	data[13] 	632645
scalar barabasi_100nodes_network.node[13].core_layer 	slots_sent[face$o[1]->client[13]] 	141646345
scalar barabasi_100nodes_network.node[13].core_layer 	slots_sent[face$o[2]->node[2]] 	0
scalar barabasi_100nodes_network.node[13].core_layer 	slots_sent[face$o[3]->node[67]] 	100135941
scalar barabasi_100nodes_network.node[13].core_layer 	slots_sent[face$o[4]->node[78]] 	260419497
scalar barabasi_100nodes_network.node[13].content_store 	p_hit[13] 	0.12122864958461
scalar barabasi_100nodes_network.node[13].content_store 	hits[13] 	117131
scalar barabasi_100nodes_network.node[13].content_store 	misses[13] 	849068
scalar barabasi_100nodes_network.node[13].content_store 	decision_yes[13] 	352720
scalar barabasi_100nodes_network.node[13].content_store 	decision_no[13] 	279925
scalar barabasi_100nodes_network.node[13].content_store 	decision_ratio[13] 	0.55753226533048
scalar barabasi_100nodes_network.node[13].proactive_component 	hdistance[13].proactive_component 	4.2073096398403
scalar barabasi_100nodes_network.node[13].proactive_component 	downloads[13].proactive_component 	336323
scalar barabasi_100nodes_network.node[13].proactive_component 	avg_time[13].proactive_component 	0
scalar barabasi_100nodes_network.node[14].core_layer 	interests[14] 	241921
scalar barabasi_100nodes_network.node[14].core_layer 	data[14] 	142734
scalar barabasi_100nodes_network.node[14].core_layer 	slots_sent[face$o[1]->client[14]] 	145033571
scalar barabasi_100nodes_network.node[14].core_layer 	slots_sent[face$o[2]->node[8]] 	0
scalar barabasi_100nodes_network.node[14].content_store 	p_hit[14] 	0.40999747851571
scalar barabasi_100nodes_network.node[14].content_store 	hits[14] 	99187
scalar barabasi_100nodes_network.node[14].content_store 	misses[14] 	142734
scalar barabasi_100nodes_network.node[14].content_store 	decision_yes[14] 	81280
scalar barabasi_100nodes_network.node[14].content_store 	decision_no[14] 	61454
scalar barabasi_100nodes_network.node[14].content_store 	decision_ratio[14] 	0.56945086664705
scalar barabasi_100nodes_network.node[14].proactive_component 	hdistance[14].proactive_component 	4.7312112454377
scalar barabasi_100nodes_network.node[14].proactive_component 	downloads[14].proactive_component 	73701
scalar barabasi_100nodes_network.node[14].proactive_component 	avg_time[14].proactive_component 	0
scalar barabasi_100nodes_network.node[15].core_layer 	interests[15] 	656818
scalar barabasi_100nodes_network.node[15].core_layer 	data[15] 	421889
scalar barabasi_100nodes_network.node[15].core_layer 	slots_sent[face$o[1]->client[15]] 	135956050
scalar barabasi_100nodes_network.node[15].core_layer 	slots_sent[face$o[2]->node[0]] 	0
scalar barabasi_100nodes_network.node[15].core_layer 	slots_sent[face$o[3]->node[40]] 	100579040
scalar barabasi_100nodes_network.node[15].core_layer 	slots_sent[face$o[4]->node[56]] 	100388954
scalar barabasi_100nodes_network.node[15].content_store 	p_hit[15] 	0.17063783270251
scalar barabasi_100nodes_network.node[15].content_store 	hits[15] 	112078
scalar barabasi_100nodes_network.node[15].content_store 	misses[15] 	544740
scalar barabasi_100nodes_network.node[15].content_store 	decision_yes[15] 	229596
scalar barabasi_100nodes_network.node[15].content_store 	decision_no[15] 	192293
scalar barabasi_100nodes_network.node[15].content_store 	decision_ratio[15] 	0.54420949586266
scalar barabasi_100nodes_network.node[15].proactive_component 	hdistance[15].proactive_component 	3.3820926103584
scalar barabasi_100nodes_network.node[15].proactive_component 	downloads[15].proactive_component 	230363
scalar barabasi_100nodes_network.node[15].proactive_component 	avg_time[15].proactive_component 	0
scalar barabasi_100nodes_network.node[16].core_layer 	interests[16] 	1397255
scalar barabasi_100nodes_network.node[16].core_layer 	data[16] 	929000
scalar barabasi_100nodes_network.node[16].core_layer 	slots_sent[face$o[1]->client[16]] 	141109461
scalar barabasi_100nodes_network.node[16].core_layer 	slots_sent[face$o[2]->node[2]] 	0
scalar barabasi_100nodes_network.node[16].core_layer 	slots_sent[face$o[3]->node[19]] 	466569118
scalar barabasi_100nodes_network.node[16].core_layer 	slots_sent[face$o[4]->node[20]] 	100336324
scalar barabasi_100nodes_network.node[16].content_store 	p_hit[16] 	0.085780333582632
scalar barabasi_100nodes_network.node[16].content_store 	hits[16] 	119857
scalar barabasi_100nodes_network.node[16].content_store 	misses[16] 	1277398
scalar barabasi_100nodes_network.node[16].content_store 	decision_yes[16] 	516027
scalar barabasi_100nodes_network.node[16].content_store 	decision_no[16] 	412973
scalar barabasi_100nodes_network.node[16].content_store 	decision_ratio[16] 	0.55546501614639
scalar barabasi_100nodes_network.node[16].proactive_component 	hdistance[16].proactive_component 	4.2415783279205
scalar barabasi_100nodes_network.node[16].proactive_component 	downloads[16].proactive_component 	494498
scalar barabasi_100nodes_network.node[16].proactive_component 	avg_time[16].proactive_component 	0
scalar barabasi_100nodes_network.node[17].core_layer 	interests[17] 	240396
scalar barabasi_100nodes_network.node[17].core_layer 	data[17] 	141385
scalar barabasi_100nodes_network.node[17].core_layer 	slots_sent[face$o[1]->client[17]] 	144614402
scalar barabasi_100nodes_network.node[17].core_layer 	slots_sent[face$o[2]->node[8]] 	0
scalar barabasi_100nodes_network.node[17].content_store 	p_hit[17] 	0.41186625401421
scalar barabasi_100nodes_network.node[17].content_store 	hits[17] 	99011
scalar barabasi_100nodes_network.node[17].content_store 	misses[17] 	141385
scalar barabasi_100nodes_network.node[17].content_store 	decision_yes[17] 	80540
scalar barabasi_100nodes_network.node[17].content_store 	decision_no[17] 	60845
scalar barabasi_100nodes_network.node[17].content_store 	decision_ratio[17] 	0.56965024578279
scalar barabasi_100nodes_network.node[17].proactive_component 	hdistance[17].proactive_component 	4.7296435220677
scalar barabasi_100nodes_network.node[17].proactive_component 	downloads[17].proactive_component 	73048
scalar barabasi_100nodes_network.node[17].proactive_component 	avg_time[17].proactive_component 	0
scalar barabasi_100nodes_network.node[18].core_layer 	interests[18] 	4803806
scalar barabasi_100nodes_network.node[18].core_layer 	data[18] 	3067846
scalar barabasi_100nodes_network.node[18].core_layer 	slots_sent[face$o[1]->client[18]] 	131908273
scalar barabasi_100nodes_network.node[18].core_layer 	slots_sent[face$o[2]->node[2]] 	1848133886
scalar barabasi_100nodes_network.node[18].core_layer 	slots_sent[face$o[3]->node[53]] 	100405692
scalar barabasi_100nodes_network.node[18].core_layer 	slots_sent[face$o[4]->node[68]] 	100522691
scalar barabasi_100nodes_network.node[18].core_layer 	slots_sent[face$o[5]->node[72]] 	71872804
scalar barabasi_100nodes_network.node[18].content_store 	p_hit[18] 	0.064250721198983
scalar barabasi_100nodes_network.node[18].content_store 	hits[18] 	308648
scalar barabasi_100nodes_network.node[18].content_store 	misses[18] 	4495158
scalar barabasi_100nodes_network.node[18].content_store 	decision_yes[18] 	1566862
scalar barabasi_100nodes_network.node[18].content_store 	decision_no[18] 	1500984
scalar barabasi_100nodes_network.node[18].content_store 	decision_ratio[18] 	0.51073684924211
scalar barabasi_100nodes_network.node[18].proactive_component 	hdistance[18].proactive_component 	2.2960657500524
scalar barabasi_100nodes_network.node[18].proactive_component 	downloads[18].proactive_component 	1800394
scalar barabasi_100nodes_network.node[18].proactive_component 	avg_time[18].proactive_component 	0
scalar barabasi_100nodes_network.node[19].core_layer 	interests[19] 	1022121
scalar barabasi_100nodes_network.node[19].core_layer 	data[19] 	664932
scalar barabasi_100nodes_network.node[19].core_layer 	slots_sent[face$o[1]->client[19]] 	143926049
scalar barabasi_100nodes_network.node[19].core_layer 	slots_sent[face$o[2]->node[16]] 	0
scalar barabasi_100nodes_network.node[19].core_layer 	slots_sent[face$o[3]->node[63]] 	100212458
scalar barabasi_100nodes_network.node[19].core_layer 	slots_sent[face$o[4]->node[70]] 	100481767
scalar barabasi_100nodes_network.node[19].core_layer 	slots_sent[face$o[5]->node[80]] 	100453729
scalar barabasi_100nodes_network.node[19].core_layer 	slots_sent[face$o[6]->node[89]] 	99930352
scalar barabasi_100nodes_network.node[19].content_store 	p_hit[19] 	0.12607411451286
scalar barabasi_100nodes_network.node[19].content_store 	hits[19] 	128863
scalar barabasi_100nodes_network.node[19].content_store 	misses[19] 	893258
scalar barabasi_100nodes_network.node[19].content_store 	decision_yes[19] 	374954
scalar barabasi_100nodes_network.node[19].content_store 	decision_no[19] 	289978
scalar barabasi_100nodes_network.node[19].content_store 	decision_ratio[19] 	0.56389826328106
scalar barabasi_100nodes_network.node[19].proactive_component 	hdistance[19].proactive_component 	5.2421731494544
scalar barabasi_100nodes_network.node[19].proactive_component 	downloads[19].proactive_component 	347330
scalar barabasi_100nodes_network.node[19].proactive_component 	avg_time[19].proactive_component 	0
scalar barabasi_100nodes_network.node[20].core_layer 	interests[20] 	237867
scalar barabasi_100nodes_network.node[20].core_layer 	data[20] 	139392
scalar barabasi_100nodes_network.node[20].core_layer 	slots_sent[face$o[1]->client[20]] 	147080509
scalar barabasi_100nodes_network.node[20].core_layer 	slots_sent[face$o[2]->node[16]] 	0
scalar barabasi_100nodes_network.node[20].content_store 	p_hit[20] 	0.41399185258989
scalar barabasi_100nodes_network.node[20].content_store 	hits[20] 	98475
scalar barabasi_100nodes_network.node[20].content_store 	misses[20] 	139392
scalar barabasi_100nodes_network.node[20].content_store 	decision_yes[20] 	80972
scalar barabasi_100nodes_network.node[20].content_store 	decision_no[20] 	58420
scalar barabasi_100nodes_network.node[20].content_store 	decision_ratio[20] 	0.58089416896235
scalar barabasi_100nodes_network.node[20].proactive_component 	hdistance[20].proactive_component 	5.240895079347
scalar barabasi_100nodes_network.node[20].proactive_component 	downloads[20].proactive_component 	70072
scalar barabasi_100nodes_network.node[20].proactive_component 	avg_time[20].proactive_component 	0
scalar barabasi_100nodes_network.node[21].core_layer 	interests[21] 	599092
scalar barabasi_100nodes_network.node[21].core_layer 	data[21] 	383865
scalar barabasi_100nodes_network.node[21].core_layer 	slots_sent[face$o[1]->client[21]] 	136645222
scalar barabasi_100nodes_network.node[21].core_layer 	slots_sent[face$o[2]->node[0]] 	0
scalar barabasi_100nodes_network.node[21].core_layer 	slots_sent[face$o[3]->node[24]] 	100517347
scalar barabasi_100nodes_network.node[21].core_layer 	slots_sent[face$o[4]->node[57]] 	71025561
scalar barabasi_100nodes_network.node[21].content_store 	p_hit[21] 	0.18256127606444
scalar barabasi_100nodes_network.node[21].content_store 	hits[21] 	109371
scalar barabasi_100nodes_network.node[21].content_store 	misses[21] 	489721
scalar barabasi_100nodes_network.node[21].content_store 	decision_yes[21] 	208864
scalar barabasi_100nodes_network.node[21].content_store 	decision_no[21] 	175001
scalar barabasi_100nodes_network.node[21].content_store 	decision_ratio[21] 	0.54410795461946
scalar barabasi_100nodes_network.node[21].proactive_component 	hdistance[21].proactive_component 	3.4145903073646
scalar barabasi_100nodes_network.node[21].proactive_component 	downloads[21].proactive_component 	210304
scalar barabasi_100nodes_network.node[21].proactive_component 	avg_time[21].proactive_component 	0
scalar barabasi_100nodes_network.node[22].core_layer 	interests[22] 	247615
scalar barabasi_100nodes_network.node[22].core_layer 	data[22] 	148278
scalar barabasi_100nodes_network.node[22].core_layer 	slots_sent[face$o[1]->client[22]] 	139422745
scalar barabasi_100nodes_network.node[22].core_layer 	slots_sent[face$o[2]->node[0]] 	0
scalar barabasi_100nodes_network.node[22].content_store 	p_hit[22] 	0.40117521151788
scalar barabasi_100nodes_network.node[22].content_store 	hits[22] 	99337
scalar barabasi_100nodes_network.node[22].content_store 	misses[22] 	148278
scalar barabasi_100nodes_network.node[22].content_store 	decision_yes[22] 	81338
scalar barabasi_100nodes_network.node[22].content_store 	decision_no[22] 	66940
scalar barabasi_100nodes_network.node[22].content_store 	decision_ratio[22] 	0.54855069531556
scalar barabasi_100nodes_network.node[22].proactive_component 	hdistance[22].proactive_component 	3.369102717229
scalar barabasi_100nodes_network.node[22].proactive_component 	downloads[22].proactive_component 	80376
scalar barabasi_100nodes_network.node[22].proactive_component 	avg_time[22].proactive_component 	0
scalar barabasi_100nodes_network.node[23].core_layer 	interests[23] 	1295295
scalar barabasi_100nodes_network.node[23].core_layer 	data[23] 	848667
scalar barabasi_100nodes_network.node[23].core_layer 	slots_sent[face$o[1]->client[23]] 	144329467
scalar barabasi_100nodes_network.node[23].core_layer 	slots_sent[face$o[2]->node[7]] 	0
scalar barabasi_100nodes_network.node[23].core_layer 	slots_sent[face$o[3]->node[46]] 	139130352
scalar barabasi_100nodes_network.node[23].core_layer 	slots_sent[face$o[4]->node[47]] 	100120411
scalar barabasi_100nodes_network.node[23].core_layer 	slots_sent[face$o[5]->node[51]] 	100263181
scalar barabasi_100nodes_network.node[23].core_layer 	slots_sent[face$o[6]->node[83]] 	100233105
scalar barabasi_100nodes_network.node[23].core_layer 	slots_sent[face$o[7]->node[86]] 	100441163
scalar barabasi_100nodes_network.node[23].content_store 	p_hit[23] 	0.10650392381658
scalar barabasi_100nodes_network.node[23].content_store 	hits[23] 	137954
scalar barabasi_100nodes_network.node[23].content_store 	misses[23] 	1157341
scalar barabasi_100nodes_network.node[23].content_store 	decision_yes[23] 	478438
scalar barabasi_100nodes_network.node[23].content_store 	decision_no[23] 	370229
scalar barabasi_100nodes_network.node[23].content_store 	decision_ratio[23] 	0.56375233159767
scalar barabasi_100nodes_network.node[23].proactive_component 	hdistance[23].proactive_component 	5.259699957601
scalar barabasi_100nodes_network.node[23].proactive_component 	downloads[23].proactive_component 	443404
scalar barabasi_100nodes_network.node[23].proactive_component 	avg_time[23].proactive_component 	0
scalar barabasi_100nodes_network.node[24].core_layer 	interests[24] 	241706
scalar barabasi_100nodes_network.node[24].core_layer 	data[24] 	142600
scalar barabasi_100nodes_network.node[24].core_layer 	slots_sent[face$o[1]->client[24]] 	144101296
scalar barabasi_100nodes_network.node[24].core_layer 	slots_sent[face$o[2]->node[21]] 	0
scalar barabasi_100nodes_network.node[24].content_store 	p_hit[24] 	0.4100270576651
scalar barabasi_100nodes_network.node[24].content_store 	hits[24] 	99106
scalar barabasi_100nodes_network.node[24].content_store 	misses[24] 	142600
scalar barabasi_100nodes_network.node[24].content_store 	decision_yes[24] 	80841
scalar barabasi_100nodes_network.node[24].content_store 	decision_no[24] 	61759
scalar barabasi_100nodes_network.node[24].content_store 	decision_ratio[24] 	0.56690743338008
scalar barabasi_100nodes_network.node[24].proactive_component 	hdistance[24].proactive_component 	4.3911730608503
scalar barabasi_100nodes_network.node[24].proactive_component 	downloads[24].proactive_component 	74182
scalar barabasi_100nodes_network.node[24].proactive_component 	avg_time[24].proactive_component 	0
scalar barabasi_100nodes_network.node[25].core_layer 	interests[25] 	441085
scalar barabasi_100nodes_network.node[25].core_layer 	data[25] 	278051
scalar barabasi_100nodes_network.node[25].core_layer 	slots_sent[face$o[1]->client[25]] 	143251916
scalar barabasi_100nodes_network.node[25].core_layer 	slots_sent[face$o[2]->node[2]] 	0
scalar barabasi_100nodes_network.node[25].core_layer 	slots_sent[face$o[3]->node[38]] 	100018599
scalar barabasi_100nodes_network.node[25].content_store 	p_hit[25] 	0.23710169241756
scalar barabasi_100nodes_network.node[25].content_store 	hits[25] 	104582
scalar barabasi_100nodes_network.node[25].content_store 	misses[25] 	336503
scalar barabasi_100nodes_network.node[25].content_store 	decision_yes[25] 	156531
scalar barabasi_100nodes_network.node[25].content_store 	decision_no[25] 	121520
scalar barabasi_100nodes_network.node[25].content_store 	decision_ratio[25] 	0.56295787463451
scalar barabasi_100nodes_network.node[25].proactive_component 	hdistance[25].proactive_component 	4.2381932021467
scalar barabasi_100nodes_network.node[25].proactive_component 	downloads[25].proactive_component 	145340
scalar barabasi_100nodes_network.node[25].proactive_component 	avg_time[25].proactive_component 	0
scalar barabasi_100nodes_network.node[26].core_layer 	interests[26] 	723838
scalar barabasi_100nodes_network.node[26].core_layer 	data[26] 	468865
scalar barabasi_100nodes_network.node[26].core_layer 	slots_sent[face$o[1]->client[26]] 	142175033
scalar barabasi_100nodes_network.node[26].core_layer 	slots_sent[face$o[2]->node[2]] 	0
scalar barabasi_100nodes_network.node[26].core_layer 	slots_sent[face$o[3]->node[77]] 	139664006
scalar barabasi_100nodes_network.node[26].core_layer 	slots_sent[face$o[4]->node[91]] 	99896811
scalar barabasi_100nodes_network.node[26].content_store 	p_hit[26] 	0.15349152710966
scalar barabasi_100nodes_network.node[26].content_store 	hits[26] 	111103
scalar barabasi_100nodes_network.node[26].content_store 	misses[26] 	612735
scalar barabasi_100nodes_network.node[26].content_store 	decision_yes[26] 	261621
scalar barabasi_100nodes_network.node[26].content_store 	decision_no[26] 	207244
scalar barabasi_100nodes_network.node[26].content_store 	decision_ratio[26] 	0.55798790696682
scalar barabasi_100nodes_network.node[26].proactive_component 	hdistance[26].proactive_component 	4.142713418192
scalar barabasi_100nodes_network.node[26].proactive_component 	downloads[26].proactive_component 	248491
scalar barabasi_100nodes_network.node[26].proactive_component 	avg_time[26].proactive_component 	0
scalar barabasi_100nodes_network.node[27].core_layer 	interests[27] 	445366
scalar barabasi_100nodes_network.node[27].core_layer 	data[27] 	280535
scalar barabasi_100nodes_network.node[27].core_layer 	slots_sent[face$o[1]->client[27]] 	140440633
scalar barabasi_100nodes_network.node[27].core_layer 	slots_sent[face$o[2]->node[4]] 	0
scalar barabasi_100nodes_network.node[27].core_layer 	slots_sent[face$o[3]->node[99]] 	100408929
scalar barabasi_100nodes_network.node[27].content_store 	p_hit[27] 	0.23507182856347
scalar barabasi_100nodes_network.node[27].content_store 	hits[27] 	104693
scalar barabasi_100nodes_network.node[27].content_store 	misses[27] 	340673
scalar barabasi_100nodes_network.node[27].content_store 	decision_yes[27] 	155695
scalar barabasi_100nodes_network.node[27].content_store 	decision_no[27] 	124840
scalar barabasi_100nodes_network.node[27].content_store 	decision_ratio[27] 	0.55499313811111
scalar barabasi_100nodes_network.node[27].proactive_component 	hdistance[27].proactive_component 	4.2814111135503
scalar barabasi_100nodes_network.node[27].proactive_component 	downloads[27].proactive_component 	150321
scalar barabasi_100nodes_network.node[27].proactive_component 	avg_time[27].proactive_component 	0
scalar barabasi_100nodes_network.node[28].core_layer 	interests[28] 	247309
scalar barabasi_100nodes_network.node[28].core_layer 	data[28] 	147995
scalar barabasi_100nodes_network.node[28].core_layer 	slots_sent[face$o[1]->client[28]] 	139300213
scalar barabasi_100nodes_network.node[28].core_layer 	slots_sent[face$o[2]->node[0]] 	0
scalar barabasi_100nodes_network.node[28].content_store 	p_hit[28] 	0.4015785919639
scalar barabasi_100nodes_network.node[28].content_store 	hits[28] 	99314
scalar barabasi_100nodes_network.node[28].content_store 	misses[28] 	147995
scalar barabasi_100nodes_network.node[28].content_store 	decision_yes[28] 	81160
scalar barabasi_100nodes_network.node[28].content_store 	decision_no[28] 	66835
scalar barabasi_100nodes_network.node[28].content_store 	decision_ratio[28] 	0.54839690530085
scalar barabasi_100nodes_network.node[28].proactive_component 	hdistance[28].proactive_component 	3.3653305466398
scalar barabasi_100nodes_network.node[28].proactive_component 	downloads[28].proactive_component 	80382
scalar barabasi_100nodes_network.node[28].proactive_component 	avg_time[28].proactive_component 	0
scalar barabasi_100nodes_network.node[29].core_layer 	interests[29] 	240881
scalar barabasi_100nodes_network.node[29].core_layer 	data[29] 	141743
scalar barabasi_100nodes_network.node[29].core_layer 	slots_sent[face$o[1]->client[29]] 	144184033
scalar barabasi_100nodes_network.node[29].core_layer 	slots_sent[face$o[2]->node[2]] 	0
scalar barabasi_100nodes_network.node[29].content_store 	p_hit[29] 	0.41156421635579
scalar barabasi_100nodes_network.node[29].content_store 	hits[29] 	99138
scalar barabasi_100nodes_network.node[29].content_store 	misses[29] 	141743
scalar barabasi_100nodes_network.node[29].content_store 	decision_yes[29] 	80452
scalar barabasi_100nodes_network.node[29].content_store 	decision_no[29] 	61291
scalar barabasi_100nodes_network.node[29].content_store 	decision_ratio[29] 	0.56759063939665
scalar barabasi_100nodes_network.node[29].proactive_component 	hdistance[29].proactive_component 	4.2385992048955
scalar barabasi_100nodes_network.node[29].proactive_component 	downloads[29].proactive_component 	73701
scalar barabasi_100nodes_network.node[29].proactive_component 	avg_time[29].proactive_component 	0
scalar barabasi_100nodes_network.node[30].core_layer 	interests[30] 	446872
scalar barabasi_100nodes_network.node[30].core_layer 	data[30] 	282302
scalar barabasi_100nodes_network.node[30].core_layer 	slots_sent[face$o[1]->client[30]] 	140378998
scalar barabasi_100nodes_network.node[30].core_layer 	slots_sent[face$o[2]->node[4]] 	0
scalar barabasi_100nodes_network.node[30].core_layer 	slots_sent[face$o[3]->node[88]] 	100595012
scalar barabasi_100nodes_network.node[30].content_store 	p_hit[30] 	0.23342254605346
scalar barabasi_100nodes_network.node[30].content_store 	hits[30] 	104310
scalar barabasi_100nodes_network.node[30].content_store 	misses[30] 	342562
scalar barabasi_100nodes_network.node[30].content_store 	decision_yes[30] 	156731
scalar barabasi_100nodes_network.node[30].content_store 	decision_no[30] 	125571
scalar barabasi_100nodes_network.node[30].content_store 	decision_ratio[30] 	0.5551891237044
scalar barabasi_100nodes_network.node[30].proactive_component 	hdistance[30].proactive_component 	4.2744051767048
scalar barabasi_100nodes_network.node[30].proactive_component 	downloads[30].proactive_component 	150675
scalar barabasi_100nodes_network.node[30].proactive_component 	avg_time[30].proactive_component 	0
scalar barabasi_100nodes_network.node[31].core_layer 	interests[31] 	608290
scalar barabasi_100nodes_network.node[31].core_layer 	data[31] 	395139
scalar barabasi_100nodes_network.node[31].core_layer 	slots_sent[face$o[1]->client[31]] 	145898748
scalar barabasi_100nodes_network.node[31].core_layer 	slots_sent[face$o[2]->node[7]] 	0
scalar barabasi_100nodes_network.node[31].core_layer 	slots_sent[face$o[3]->node[65]] 	181966150
scalar barabasi_100nodes_network.node[31].content_store 	p_hit[31] 	0.16860543490769
scalar barabasi_100nodes_network.node[31].content_store 	hits[31] 	102561
scalar barabasi_100nodes_network.node[31].content_store 	misses[31] 	505729
scalar barabasi_100nodes_network.node[31].content_store 	decision_yes[31] 	224141
scalar barabasi_100nodes_network.node[31].content_store 	decision_no[31] 	170998
scalar barabasi_100nodes_network.node[31].content_store 	decision_ratio[31] 	0.5672459564862
scalar barabasi_100nodes_network.node[31].proactive_component 	hdistance[31].proactive_component 	5.3134732830007
scalar barabasi_100nodes_network.node[31].proactive_component 	downloads[31].proactive_component 	205169
scalar barabasi_100nodes_network.node[31].proactive_component 	avg_time[31].proactive_component 	0
scalar barabasi_100nodes_network.node[32].core_layer 	interests[32] 	639387
scalar barabasi_100nodes_network.node[32].core_layer 	data[32] 	409930
scalar barabasi_100nodes_network.node[32].core_layer 	slots_sent[face$o[1]->client[32]] 	143273256
scalar barabasi_100nodes_network.node[32].core_layer 	slots_sent[face$o[2]->node[2]] 	0
scalar barabasi_100nodes_network.node[32].core_layer 	slots_sent[face$o[3]->node[43]] 	100157408
scalar barabasi_100nodes_network.node[32].core_layer 	slots_sent[face$o[4]->node[64]] 	100855237
scalar barabasi_100nodes_network.node[32].content_store 	p_hit[32] 	0.17612650867159
scalar barabasi_100nodes_network.node[32].content_store 	hits[32] 	112613
scalar barabasi_100nodes_network.node[32].content_store 	misses[32] 	526774
scalar barabasi_100nodes_network.node[32].content_store 	decision_yes[32] 	230038
scalar barabasi_100nodes_network.node[32].content_store 	decision_no[32] 	179892
scalar barabasi_100nodes_network.node[32].content_store 	decision_ratio[32] 	0.56116410118801
scalar barabasi_100nodes_network.node[32].proactive_component 	hdistance[32].proactive_component 	4.2385894042811
scalar barabasi_100nodes_network.node[32].proactive_component 	downloads[32].proactive_component 	215370
scalar barabasi_100nodes_network.node[32].proactive_component 	avg_time[32].proactive_component 	0
scalar barabasi_100nodes_network.node[33].core_layer 	interests[33] 	241451
scalar barabasi_100nodes_network.node[33].core_layer 	data[33] 	142726
scalar barabasi_100nodes_network.node[33].core_layer 	slots_sent[face$o[1]->client[33]] 	143683075
scalar barabasi_100nodes_network.node[33].core_layer 	slots_sent[face$o[2]->node[2]] 	0
scalar barabasi_100nodes_network.node[33].content_store 	p_hit[33] 	0.40888213343494
scalar barabasi_100nodes_network.node[33].content_store 	hits[33] 	98725
scalar barabasi_100nodes_network.node[33].content_store 	misses[33] 	142726
scalar barabasi_100nodes_network.node[33].content_store 	decision_yes[33] 	80913
scalar barabasi_100nodes_network.node[33].content_store 	decision_no[33] 	61813
scalar barabasi_100nodes_network.node[33].content_store 	decision_ratio[33] 	0.56691142468786
scalar barabasi_100nodes_network.node[33].proactive_component 	hdistance[33].proactive_component 	4.2374883683295
scalar barabasi_100nodes_network.node[33].proactive_component 	downloads[33].proactive_component 	74151
scalar barabasi_100nodes_network.node[33].proactive_component 	avg_time[33].proactive_component 	0
scalar barabasi_100nodes_network.node[34].core_layer 	interests[34] 	241658
scalar barabasi_100nodes_network.node[34].core_layer 	data[34] 	142452
scalar barabasi_100nodes_network.node[34].core_layer 	slots_sent[face$o[1]->client[34]] 	144469740
scalar barabasi_100nodes_network.node[34].core_layer 	slots_sent[face$o[2]->node[2]] 	0
scalar barabasi_100nodes_network.node[34].content_store 	p_hit[34] 	0.41052230838623
scalar barabasi_100nodes_network.node[34].content_store 	hits[34] 	99206
scalar barabasi_100nodes_network.node[34].content_store 	misses[34] 	142452
scalar barabasi_100nodes_network.node[34].content_store 	decision_yes[34] 	80883
scalar barabasi_100nodes_network.node[34].content_store 	decision_no[34] 	61569
scalar barabasi_100nodes_network.node[34].content_store 	decision_ratio[34] 	0.56779125600202
scalar barabasi_100nodes_network.node[34].proactive_component 	hdistance[34].proactive_component 	4.2363651130996
scalar barabasi_100nodes_network.node[34].proactive_component 	downloads[34].proactive_component 	73873
scalar barabasi_100nodes_network.node[34].proactive_component 	avg_time[34].proactive_component 	0
scalar barabasi_100nodes_network.node[35].core_layer 	interests[35] 	452826
scalar barabasi_100nodes_network.node[35].core_layer 	data[35] 	286211
scalar barabasi_100nodes_network.node[35].core_layer 	slots_sent[face$o[1]->client[35]] 	138403471
scalar barabasi_100nodes_network.node[35].core_layer 	slots_sent[face$o[2]->node[5]] 	0
scalar barabasi_100nodes_network.node[35].core_layer 	slots_sent[face$o[3]->node[50]] 	100745939
scalar barabasi_100nodes_network.node[35].content_store 	p_hit[35] 	0.2310468038496
scalar barabasi_100nodes_network.node[35].content_store 	hits[35] 	104624
scalar barabasi_100nodes_network.node[35].content_store 	misses[35] 	348202
scalar barabasi_100nodes_network.node[35].content_store 	decision_yes[35] 	156713
scalar barabasi_100nodes_network.node[35].content_store 	decision_no[35] 	129498
scalar barabasi_100nodes_network.node[35].content_store 	decision_ratio[35] 	0.54754359545929
scalar barabasi_100nodes_network.node[35].proactive_component 	hdistance[35].proactive_component 	3.9266763052209
scalar barabasi_100nodes_network.node[35].proactive_component 	downloads[35].proactive_component 	155625
scalar barabasi_100nodes_network.node[35].proactive_component 	avg_time[35].proactive_component 	0
scalar barabasi_100nodes_network.node[36].core_layer 	interests[36] 	441117
scalar barabasi_100nodes_network.node[36].core_layer 	data[36] 	277769
scalar barabasi_100nodes_network.node[36].core_layer 	slots_sent[face$o[1]->client[36]] 	143011325
scalar barabasi_100nodes_network.node[36].core_layer 	slots_sent[face$o[2]->node[2]] 	0
scalar barabasi_100nodes_network.node[36].core_layer 	slots_sent[face$o[3]->node[75]] 	100566848
scalar barabasi_100nodes_network.node[36].content_store 	p_hit[36] 	0.23719330699112
scalar barabasi_100nodes_network.node[36].content_store 	hits[36] 	104630
scalar barabasi_100nodes_network.node[36].content_store 	misses[36] 	336487
scalar barabasi_100nodes_network.node[36].content_store 	decision_yes[36] 	156370
scalar barabasi_100nodes_network.node[36].content_store 	decision_no[36] 	121399
[...]
scalar barabasi_100nodes_network.client[8] 	avg_time[8].real 	0
scalar barabasi_100nodes_network.client[9] 	hdistance[9].real 	1.5213910266362
scalar barabasi_100nodes_network.client[9] 	downloads[9].real 	180356
scalar barabasi_100nodes_network.client[9] 	avg_time[9].real 	0
scalar barabasi_100nodes_network.client[10] 	hdistance[10].real 	1.4191626086763
scalar barabasi_100nodes_network.client[10] 	downloads[10].real 	179892
scalar barabasi_100nodes_network.client[10] 	avg_time[10].real 	0
scalar barabasi_100nodes_network.client[11] 	hdistance[11].real 	1.3705633362371
scalar barabasi_100nodes_network.client[11] 	downloads[11].real 	179076
scalar barabasi_100nodes_network.client[11] 	avg_time[11].real 	0
scalar barabasi_100nodes_network.client[12] 	hdistance[12].real 	1.7210492036896
scalar barabasi_100nodes_network.client[12] 	downloads[12].real 	179641
scalar barabasi_100nodes_network.client[12] 	avg_time[12].real 	0
scalar barabasi_100nodes_network.client[13] 	hdistance[13].real 	1.7250511321522
scalar barabasi_100nodes_network.client[13] 	downloads[13].real 	179437
scalar barabasi_100nodes_network.client[13] 	avg_time[13].real 	0
scalar barabasi_100nodes_network.client[14] 	hdistance[14].real 	1.8322075504109
scalar barabasi_100nodes_network.client[14] 	downloads[14].real 	180467
scalar barabasi_100nodes_network.client[14] 	avg_time[14].real 	0
scalar barabasi_100nodes_network.client[15] 	hdistance[15].real 	1.4465087337215
scalar barabasi_100nodes_network.client[15] 	downloads[15].real 	179992
scalar barabasi_100nodes_network.client[15] 	avg_time[15].real 	0
scalar barabasi_100nodes_network.client[16] 	hdistance[16].real 	1.7565987619333
scalar barabasi_100nodes_network.client[16] 	downloads[16].real 	179958
scalar barabasi_100nodes_network.client[16] 	avg_time[16].real 	0
scalar barabasi_100nodes_network.client[17] 	hdistance[17].real 	1.8241335330909
scalar barabasi_100nodes_network.client[17] 	downloads[17].real 	179551
scalar barabasi_100nodes_network.client[17] 	avg_time[17].real 	0
scalar barabasi_100nodes_network.client[18] 	hdistance[18].real 	1.7831100221186
scalar barabasi_100nodes_network.client[18] 	downloads[18].real 	180391
scalar barabasi_100nodes_network.client[18] 	avg_time[18].real 	0
scalar barabasi_100nodes_network.client[19] 	hdistance[19].real 	2.1160329217191
scalar barabasi_100nodes_network.client[19] 	downloads[19].real 	179699
scalar barabasi_100nodes_network.client[19] 	avg_time[19].real 	0
scalar barabasi_100nodes_network.client[20] 	hdistance[20].real 	1.9551399577591
scalar barabasi_100nodes_network.client[20] 	downloads[20].real 	179447
scalar barabasi_100nodes_network.client[20] 	avg_time[20].real 	0
scalar barabasi_100nodes_network.client[21] 	hdistance[21].real 	1.4364403724676
scalar barabasi_100nodes_network.client[21] 	downloads[21].real 	180311
scalar barabasi_100nodes_network.client[21] 	avg_time[21].real 	0
scalar barabasi_100nodes_network.client[22] 	hdistance[22].real 	1.375702227757
scalar barabasi_100nodes_network.client[22] 	downloads[22].real 	180675
scalar barabasi_100nodes_network.client[22] 	avg_time[22].real 	0
scalar barabasi_100nodes_network.client[23] 	hdistance[23].real 	2.1185289737491
scalar barabasi_100nodes_network.client[23] 	downloads[23].real 	179956
scalar barabasi_100nodes_network.client[23] 	avg_time[23].real 	0
scalar barabasi_100nodes_network.client[24] 	hdistance[24].real 	1.7055021756406
scalar barabasi_100nodes_network.client[24] 	downloads[24].real 	179947
scalar barabasi_100nodes_network.client[24] 	avg_time[24].real 	0
scalar barabasi_100nodes_network.client[25] 	hdistance[25].real 	1.6736597641007
scalar barabasi_100nodes_network.client[25] 	downloads[25].real 	180416
scalar barabasi_100nodes_network.client[25] 	avg_time[25].real 	0
scalar barabasi_100nodes_network.client[26] 	hdistance[26].real 	1.7136110539402
scalar barabasi_100nodes_network.client[26] 	downloads[26].real 	179773
scalar barabasi_100nodes_network.client[26] 	avg_time[26].real 	0
scalar barabasi_100nodes_network.client[27] 	hdistance[27].real 	1.7305586041303
scalar barabasi_100nodes_network.client[27] 	downloads[27].real 	179501
scalar barabasi_100nodes_network.client[27] 	avg_time[27].real 	0
scalar barabasi_100nodes_network.client[28] 	hdistance[28].real 	1.3734831610093
scalar barabasi_100nodes_network.client[28] 	downloads[28].real 	180474
scalar barabasi_100nodes_network.client[28] 	avg_time[28].real 	0
scalar barabasi_100nodes_network.client[29] 	hdistance[29].real 	1.6213876051005
scalar barabasi_100nodes_network.client[29] 	downloads[29].real 	179590
scalar barabasi_100nodes_network.client[29] 	avg_time[29].real 	0
scalar barabasi_100nodes_network.client[30] 	hdistance[30].real 	1.7364684314325
scalar barabasi_100nodes_network.client[30] 	downloads[30].real 	180005
scalar barabasi_100nodes_network.client[30] 	avg_time[30].real 	0
scalar barabasi_100nodes_network.client[31] 	hdistance[31].real 	2.05199942303
scalar barabasi_100nodes_network.client[31] 	downloads[31].real 	180252
scalar barabasi_100nodes_network.client[31] 	avg_time[31].real 	0
scalar barabasi_100nodes_network.client[32] 	hdistance[32].real 	1.6887526605179
scalar barabasi_100nodes_network.client[32] 	downloads[32].real 	180416
scalar barabasi_100nodes_network.client[32] 	avg_time[32].real 	0
scalar barabasi_100nodes_network.client[33] 	hdistance[33].real 	1.6319598303254
scalar barabasi_100nodes_network.client[33] 	downloads[33].real 	179638
scalar barabasi_100nodes_network.client[33] 	avg_time[33].real 	0
scalar barabasi_100nodes_network.client[34] 	hdistance[34].real 	1.6240136821238
scalar barabasi_100nodes_network.client[34] 	downloads[34].real 	180089
scalar barabasi_100nodes_network.client[34] 	avg_time[34].real 	0
scalar barabasi_100nodes_network.client[35] 	hdistance[35].real 	1.6458850931677
scalar barabasi_100nodes_network.client[35] 	downloads[35].real 	180320
scalar barabasi_100nodes_network.client[35] 	avg_time[35].real 	0
scalar barabasi_100nodes_network.client[36] 	hdistance[36].real 	1.6705253091362
scalar barabasi_100nodes_network.client[36] 	downloads[36].real 	179856
scalar barabasi_100nodes_network.client[36] 	avg_time[36].real 	0
scalar barabasi_100nodes_network.client[37] 	hdistance[37].real 	1.2593131110554
scalar barabasi_100nodes_network.client[37] 	downloads[37].real 	179505
scalar barabasi_100nodes_network.client[37] 	avg_time[37].real 	0
scalar barabasi_100nodes_network.client[38] 	hdistance[38].real 	1.9552648578811
scalar barabasi_100nodes_network.client[38] 	downloads[38].real 	179568
scalar barabasi_100nodes_network.client[38] 	avg_time[38].real 	0
scalar barabasi_100nodes_network.client[39] 	hdistance[39].real 	1.8657401987837
scalar barabasi_100nodes_network.client[39] 	downloads[39].real 	179391
scalar barabasi_100nodes_network.client[39] 	avg_time[39].real 	0
scalar barabasi_100nodes_network.client[40] 	hdistance[40].real 	1.7027526807679
scalar barabasi_100nodes_network.client[40] 	downloads[40].real 	180079
scalar barabasi_100nodes_network.client[40] 	avg_time[40].real 	0
scalar barabasi_100nodes_network.client[41] 	hdistance[41].real 	1.7567380826345
scalar barabasi_100nodes_network.client[41] 	downloads[41].real 	179465
scalar barabasi_100nodes_network.client[41] 	avg_time[41].real 	0
scalar barabasi_100nodes_network.client[42] 	hdistance[42].real 	1.9409708500086
scalar barabasi_100nodes_network.client[42] 	downloads[42].real 	179657
scalar barabasi_100nodes_network.client[42] 	avg_time[42].real 	0
scalar barabasi_100nodes_network.client[43] 	hdistance[43].real 	1.9494179870639
scalar barabasi_100nodes_network.client[43] 	downloads[43].real 	179807
scalar barabasi_100nodes_network.client[43] 	avg_time[43].real 	0
scalar barabasi_100nodes_network.client[44] 	hdistance[44].real 	1.3694205972834
scalar barabasi_100nodes_network.client[44] 	downloads[44].real 	180082
scalar barabasi_100nodes_network.client[44] 	avg_time[44].real 	0
scalar barabasi_100nodes_network.client[45] 	hdistance[45].real 	1.6275207855465
scalar barabasi_100nodes_network.client[45] 	downloads[45].real 	180053
scalar barabasi_100nodes_network.client[45] 	avg_time[45].real 	0
scalar barabasi_100nodes_network.client[46] 	hdistance[46].real 	1.9223220948753
scalar barabasi_100nodes_network.client[46] 	downloads[46].real 	179562
scalar barabasi_100nodes_network.client[46] 	avg_time[46].real 	0
scalar barabasi_100nodes_network.client[47] 	hdistance[47].real 	2.2905111844192
scalar barabasi_100nodes_network.client[47] 	downloads[47].real 	179759
scalar barabasi_100nodes_network.client[47] 	avg_time[47].real 	0
scalar barabasi_100nodes_network.client[48] 	hdistance[48].real 	1.95831949886
scalar barabasi_100nodes_network.client[48] 	downloads[48].real 	180708
scalar barabasi_100nodes_network.client[48] 	avg_time[48].real 	0
scalar barabasi_100nodes_network.client[49] 	hdistance[49].real 	1.9461011473766
scalar barabasi_100nodes_network.client[49] 	downloads[49].real 	179540
scalar barabasi_100nodes_network.client[49] 	avg_time[49].real 	0
scalar barabasi_100nodes_network.client[50] 	hdistance[50].real 	1.9230512787745
scalar barabasi_100nodes_network.client[50] 	downloads[50].real 	179977
scalar barabasi_100nodes_network.client[50] 	avg_time[50].real 	0
scalar barabasi_100nodes_network.client[51] 	hdistance[51].real 	2.2838611365084
scalar barabasi_100nodes_network.client[51] 	downloads[51].real 	180465
scalar barabasi_100nodes_network.client[51] 	avg_time[51].real 	0
scalar barabasi_100nodes_network.client[52] 	hdistance[52].real 	1.9577669284182
scalar barabasi_100nodes_network.client[52] 	downloads[52].real 	180451
scalar barabasi_100nodes_network.client[52] 	avg_time[52].real 	0
scalar barabasi_100nodes_network.client[53] 	hdistance[53].real 	1.8350791001492
scalar barabasi_100nodes_network.client[53] 	downloads[53].real 	180341
scalar barabasi_100nodes_network.client[53] 	avg_time[53].real 	0
scalar barabasi_100nodes_network.client[54] 	hdistance[54].real 	2.0011487074252
scalar barabasi_100nodes_network.client[54] 	downloads[54].real 	179332
scalar barabasi_100nodes_network.client[54] 	avg_time[54].real 	0
scalar barabasi_100nodes_network.client[55] 	hdistance[55].real 	1.6745907767153
scalar barabasi_100nodes_network.client[55] 	downloads[55].real 	179242
scalar barabasi_100nodes_network.client[55] 	avg_time[55].real 	0
scalar barabasi_100nodes_network.client[56] 	hdistance[56].real 	1.6982637885423
scalar barabasi_100nodes_network.client[56] 	downloads[56].real 	179932
scalar barabasi_100nodes_network.client[56] 	avg_time[56].real 	0
scalar barabasi_100nodes_network.client[57] 	hdistance[57].real 	1.4853594304461
scalar barabasi_100nodes_network.client[57] 	downloads[57].real 	179228
scalar barabasi_100nodes_network.client[57] 	avg_time[57].real 	0
scalar barabasi_100nodes_network.client[58] 	hdistance[58].real 	1.4221137038373
scalar barabasi_100nodes_network.client[58] 	downloads[58].real 	180205
scalar barabasi_100nodes_network.client[58] 	avg_time[58].real 	0
scalar barabasi_100nodes_network.client[59] 	hdistance[59].real 	1.6262887599589
scalar barabasi_100nodes_network.client[59] 	downloads[59].real 	180115
scalar barabasi_100nodes_network.client[59] 	avg_time[59].real 	0
scalar barabasi_100nodes_network.client[60] 	hdistance[60].real 	1.8099498965857
scalar barabasi_100nodes_network.client[60] 	downloads[60].real 	180826
scalar barabasi_100nodes_network.client[60] 	avg_time[60].real 	0
scalar barabasi_100nodes_network.client[61] 	hdistance[61].real 	1.8340683725509
scalar barabasi_100nodes_network.client[61] 	downloads[61].real 	179809
scalar barabasi_100nodes_network.client[61] 	avg_time[61].real 	0
scalar barabasi_100nodes_network.client[62] 	hdistance[62].real 	1.7006048944476
scalar barabasi_100nodes_network.client[62] 	downloads[62].real 	180858
scalar barabasi_100nodes_network.client[62] 	avg_time[62].real 	0
scalar barabasi_100nodes_network.client[63] 	hdistance[63].real 	2.2949715712106
scalar barabasi_100nodes_network.client[63] 	downloads[63].real 	180275
scalar barabasi_100nodes_network.client[63] 	avg_time[63].real 	0
scalar barabasi_100nodes_network.client[64] 	hdistance[64].real 	1.9499089202762
scalar barabasi_100nodes_network.client[64] 	downloads[64].real 	180611
scalar barabasi_100nodes_network.client[64] 	avg_time[64].real 	0
scalar barabasi_100nodes_network.client[65] 	hdistance[65].real 	2.0230447276709
scalar barabasi_100nodes_network.client[65] 	downloads[65].real 	179911
scalar barabasi_100nodes_network.client[65] 	avg_time[65].real 	0
scalar barabasi_100nodes_network.client[66] 	hdistance[66].real 	1.826264518131
scalar barabasi_100nodes_network.client[66] 	downloads[66].real 	180464
scalar barabasi_100nodes_network.client[66] 	avg_time[66].real 	0
scalar barabasi_100nodes_network.client[67] 	hdistance[67].real 	1.9465248676895
scalar barabasi_100nodes_network.client[67] 	downloads[67].real 	179691
scalar barabasi_100nodes_network.client[67] 	avg_time[67].real 	0
scalar barabasi_100nodes_network.client[68] 	hdistance[68].real 	1.8440833333333
scalar barabasi_100nodes_network.client[68] 	downloads[68].real 	180000
scalar barabasi_100nodes_network.client[68] 	avg_time[68].real 	0
scalar barabasi_100nodes_network.client[69] 	hdistance[69].real 	1.9395178384167
scalar barabasi_100nodes_network.client[69] 	downloads[69].real 	179276
scalar barabasi_100nodes_network.client[69] 	avg_time[69].real 	0
scalar barabasi_100nodes_network.client[70] 	hdistance[70].real 	2.3001270831367
scalar barabasi_100nodes_network.client[70] 	downloads[70].real 	180197
scalar barabasi_100nodes_network.client[70] 	avg_time[70].real 	0
scalar barabasi_100nodes_network.client[71] 	hdistance[71].real 	1.721249432026
scalar barabasi_100nodes_network.client[71] 	downloads[71].real 	180466
scalar barabasi_100nodes_network.client[71] 	avg_time[71].real 	0
scalar barabasi_100nodes_network.client[72] 	hdistance[72].real 	1.78376624817
scalar barabasi_100nodes_network.client[72] 	downloads[72].real 	180328
scalar barabasi_100nodes_network.client[72] 	avg_time[72].real 	0
scalar barabasi_100nodes_network.client[73] 	hdistance[73].real 	1.2755955496653
scalar barabasi_100nodes_network.client[73] 	downloads[73].real 	179582
scalar barabasi_100nodes_network.client[73] 	avg_time[73].real 	0
scalar barabasi_100nodes_network.client[74] 	hdistance[74].real 	1.3739339226103
scalar barabasi_100nodes_network.client[74] 	downloads[74].real 	180334
scalar barabasi_100nodes_network.client[74] 	avg_time[74].real 	0
scalar barabasi_100nodes_network.client[75] 	hdistance[75].real 	1.9605228830729
scalar barabasi_100nodes_network.client[75] 	downloads[75].real 	180155
scalar barabasi_100nodes_network.client[75] 	avg_time[75].real 	0
scalar barabasi_100nodes_network.client[76] 	hdistance[76].real 	1.5259598301999
scalar barabasi_100nodes_network.client[76] 	downloads[76].real 	180683
scalar barabasi_100nodes_network.client[76] 	avg_time[76].real 	0
scalar barabasi_100nodes_network.client[77] 	hdistance[77].real 	1.6431155695112
scalar barabasi_100nodes_network.client[77] 	downloads[77].real 	179935
scalar barabasi_100nodes_network.client[77] 	avg_time[77].real 	0
scalar barabasi_100nodes_network.client[78] 	hdistance[78].real 	2.043224732093
scalar barabasi_100nodes_network.client[78] 	downloads[78].real 	180753
scalar barabasi_100nodes_network.client[78] 	avg_time[78].real 	0
scalar barabasi_100nodes_network.client[79] 	hdistance[79].real 	1.6332908056671
scalar barabasi_100nodes_network.client[79] 	downloads[79].real 	179491
scalar barabasi_100nodes_network.client[79] 	avg_time[79].real 	0
scalar barabasi_100nodes_network.client[80] 	hdistance[80].real 	2.3041835237629
scalar barabasi_100nodes_network.client[80] 	downloads[80].real 	179944
scalar barabasi_100nodes_network.client[80] 	avg_time[80].real 	0
scalar barabasi_100nodes_network.client[81] 	hdistance[81].real 	1.8474111856424
scalar barabasi_100nodes_network.client[81] 	downloads[81].real 	179194
scalar barabasi_100nodes_network.client[81] 	avg_time[81].real 	0
scalar barabasi_100nodes_network.client[82] 	hdistance[82].real 	2.1690609456197
scalar barabasi_100nodes_network.client[82] 	downloads[82].real 	179734
scalar barabasi_100nodes_network.client[82] 	avg_time[82].real 	0
scalar barabasi_100nodes_network.client[83] 	hdistance[83].real 	2.2889823969268
scalar barabasi_100nodes_network.client[83] 	downloads[83].real 	180139
scalar barabasi_100nodes_network.client[83] 	avg_time[83].real 	0
scalar barabasi_100nodes_network.client[84] 	hdistance[84].real 	2.023187284036
scalar barabasi_100nodes_network.client[84] 	downloads[84].real 	180875
scalar barabasi_100nodes_network.client[84] 	avg_time[84].real 	0
scalar barabasi_100nodes_network.client[85] 	hdistance[85].real 	1.6770758654418
scalar barabasi_100nodes_network.client[85] 	downloads[85].real 	179937
scalar barabasi_100nodes_network.client[85] 	avg_time[85].real 	0
scalar barabasi_100nodes_network.client[86] 	hdistance[86].real 	2.286998425127
scalar barabasi_100nodes_network.client[86] 	downloads[86].real 	180332
scalar barabasi_100nodes_network.client[86] 	avg_time[86].real 	0
scalar barabasi_100nodes_network.client[87] 	hdistance[87].real 	2.2912388014964
scalar barabasi_100nodes_network.client[87] 	downloads[87].real 	180158
scalar barabasi_100nodes_network.client[87] 	avg_time[87].real 	0
scalar barabasi_100nodes_network.client[88] 	hdistance[88].real 	2.035826835111
scalar barabasi_100nodes_network.client[88] 	downloads[88].real 	179921
scalar barabasi_100nodes_network.client[88] 	avg_time[88].real 	0
scalar barabasi_100nodes_network.client[89] 	hdistance[89].real 	2.2969956174501
scalar barabasi_100nodes_network.client[89] 	downloads[89].real 	179804
scalar barabasi_100nodes_network.client[89] 	avg_time[89].real 	0
scalar barabasi_100nodes_network.client[90] 	hdistance[90].real 	1.6069710004163
scalar barabasi_100nodes_network.client[90] 	downloads[90].real 	180175
scalar barabasi_100nodes_network.client[90] 	avg_time[90].real 	0
scalar barabasi_100nodes_network.client[91] 	hdistance[91].real 	1.944826050654
scalar barabasi_100nodes_network.client[91] 	downloads[91].real 	179650
scalar barabasi_100nodes_network.client[91] 	avg_time[91].real 	0
scalar barabasi_100nodes_network.client[92] 	hdistance[92].real 	2.3029535161568
scalar barabasi_100nodes_network.client[92] 	downloads[92].real 	179955
scalar barabasi_100nodes_network.client[92] 	avg_time[92].real 	0
scalar barabasi_100nodes_network.client[93] 	hdistance[93].real 	1.3677901996774
scalar barabasi_100nodes_network.client[93] 	downloads[93].real 	179790
scalar barabasi_100nodes_network.client[93] 	avg_time[93].real 	0
scalar barabasi_100nodes_network.client[94] 	hdistance[94].real 	1.7089876694408
scalar barabasi_100nodes_network.client[94] 	downloads[94].real 	179635
scalar barabasi_100nodes_network.client[94] 	avg_time[94].real 	0
scalar barabasi_100nodes_network.client[95] 	hdistance[95].real 	1.731214818512
scalar barabasi_100nodes_network.client[95] 	downloads[95].real 	180315
scalar barabasi_100nodes_network.client[95] 	avg_time[95].real 	0
scalar barabasi_100nodes_network.client[96] 	hdistance[96].real 	1.8572009900107
scalar barabasi_100nodes_network.client[96] 	downloads[96].real 	179392
scalar barabasi_100nodes_network.client[96] 	avg_time[96].real 	0
scalar barabasi_100nodes_network.client[97] 	hdistance[97].real 	2.2780529471471
scalar barabasi_100nodes_network.client[97] 	downloads[97].real 	180293
scalar barabasi_100nodes_network.client[97] 	avg_time[97].real 	0
scalar barabasi_100nodes_network.client[98] 	hdistance[98].real 	2.1733583447908
scalar barabasi_100nodes_network.client[98] 	downloads[98].real 	179651
scalar barabasi_100nodes_network.client[98] 	avg_time[98].real 	0
scalar barabasi_100nodes_network.client[99] 	hdistance[99].real 	2.0338445443618
scalar barabasi_100nodes_network.client[99] 	downloads[99].real 	179704
scalar barabasi_100nodes_network.client[99] 	avg_time[99].real 	0
