version 2
run General-5-20150722-13:23:51-32209
attr C 1e4
attr D lce
attr F spr
attr R always_highq
attr a 1
attr brates 0.3_0.7_1.5_2.5_3.5
attr configname General
attr ctlg 1e6
attr datetime 20150722-13:23:51
attr experiment General
attr inifile omnetpp.ini
attr iterationvars "$net=barabasi_100nodes, $rep=3, $lambda=100, $a=1, $ctlg=1e6, $brates=0.3_0.7_1.5_2.5_3.5, $F=spr, $ttl=1000, $D=lce, $R=always_highq, $C=1e4, $window=60, $variance=0.05, $mytime=1800"
attr iterationvars2 "$net=barabasi_100nodes, $rep=3, $lambda=100, $a=1, $ctlg=1e6, $brates=0.3_0.7_1.5_2.5_3.5, $F=spr, $ttl=1000, $D=lce, $R=always_highq, $C=1e4, $window=60, $variance=0.05, $mytime=1800, $repetition=0"
attr lambda 100
attr measurement "$net=barabasi_100nodes, $rep=3, $lambda=100, $a=1, $ctlg=1e6, $brates=0.3_0.7_1.5_2.5_3.5, $F=spr, $ttl=1000, $D=lce, $R=always_highq, $C=1e4, $window=60, $variance=0.05, $mytime=1800"
attr mytime 1800
attr net barabasi_100nodes
attr network networks.${net=barabasi_100nodes}_network
attr processid 32209
attr rep 3
attr repetition 0
attr replication #0
attr resultdir results
attr runnumber 5
attr seedset 3
attr ttl 1000
attr variance 0.05
attr window 60

scalar . 	C 	1e4
scalar . 	a 	1
scalar . 	ctlg 	1e6
scalar . 	lambda 	100
scalar . 	mytime 	1800
scalar . 	rep 	3
scalar . 	ttl 	1000
scalar . 	variance 	0.05
scalar . 	window 	60
scalar barabasi_100nodes_network.content_distribution 	repo-0 	9
scalar barabasi_100nodes_network.content_distribution 	repo-1 	15
scalar barabasi_100nodes_network.content_distribution 	repo-2 	64
scalar barabasi_100nodes_network.content_distribution 	repo-3 	28
scalar barabasi_100nodes_network.content_distribution 	repo-4 	89
scalar barabasi_100nodes_network.content_distribution 	repo-5 	93
scalar barabasi_100nodes_network.content_distribution 	repo-6 	29
scalar barabasi_100nodes_network.content_distribution 	repo-7 	8
scalar barabasi_100nodes_network.content_distribution 	repo-8 	73
scalar barabasi_100nodes_network.content_distribution 	repo-9 	0
scalar barabasi_100nodes_network.content_distribution 	repo-10 	40
scalar barabasi_100nodes_network.content_distribution 	repo-11 	36
scalar barabasi_100nodes_network.content_distribution 	repo-12 	16
scalar barabasi_100nodes_network.content_distribution 	repo-13 	11
scalar barabasi_100nodes_network.content_distribution 	repo-14 	54
scalar barabasi_100nodes_network.content_distribution 	repo-15 	88
scalar barabasi_100nodes_network.content_distribution 	repo-16 	62
scalar barabasi_100nodes_network.content_distribution 	repo-17 	33
scalar barabasi_100nodes_network.content_distribution 	repo-18 	72
scalar barabasi_100nodes_network.content_distribution 	repo-19 	78
scalar barabasi_100nodes_network.content_distribution 	repo-20 	49
scalar barabasi_100nodes_network.content_distribution 	repo-21 	51
scalar barabasi_100nodes_network.content_distribution 	repo-22 	77
scalar barabasi_100nodes_network.content_distribution 	repo-23 	69
scalar barabasi_100nodes_network.content_distribution 	repo-24 	13
scalar barabasi_100nodes_network.content_distribution 	repo-25 	25
scalar barabasi_100nodes_network.content_distribution 	repo-26 	92
scalar barabasi_100nodes_network.content_distribution 	repo-27 	86
scalar barabasi_100nodes_network.content_distribution 	repo-28 	30
scalar barabasi_100nodes_network.content_distribution 	repo-29 	12
scalar barabasi_100nodes_network.content_distribution 	repo-30 	65
scalar barabasi_100nodes_network.content_distribution 	repo-31 	31
scalar barabasi_100nodes_network.content_distribution 	repo-32 	57
scalar barabasi_100nodes_network.content_distribution 	repo-33 	27
scalar barabasi_100nodes_network.content_distribution 	repo-34 	18
scalar barabasi_100nodes_network.content_distribution 	repo-35 	22
scalar barabasi_100nodes_network.content_distribution 	repo-36 	23
scalar barabasi_100nodes_network.content_distribution 	repo-37 	94
scalar barabasi_100nodes_network.content_distribution 	repo-38 	74
scalar barabasi_100nodes_network.content_distribution 	repo-39 	80
scalar barabasi_100nodes_network.content_distribution 	repo-40 	71
scalar barabasi_100nodes_network.content_distribution 	repo-41 	17
scalar barabasi_100nodes_network.content_distribution 	repo-42 	46
scalar barabasi_100nodes_network.content_distribution 	repo-43 	7
scalar barabasi_100nodes_network.content_distribution 	repo-44 	75
scalar barabasi_100nodes_network.content_distribution 	repo-45 	84
scalar barabasi_100nodes_network.content_distribution 	repo-46 	96
scalar barabasi_100nodes_network.content_distribution 	repo-47 	44
scalar barabasi_100nodes_network.content_distribution 	repo-48 	5
scalar barabasi_100nodes_network.content_distribution 	repo-49 	4
scalar barabasi_100nodes_network.content_distribution 	repo-50 	50
scalar barabasi_100nodes_network.content_distribution 	repo-51 	34
scalar barabasi_100nodes_network.content_distribution 	repo-52 	6
scalar barabasi_100nodes_network.content_distribution 	repo-53 	85
scalar barabasi_100nodes_network.content_distribution 	repo-54 	79
scalar barabasi_100nodes_network.content_distribution 	repo-55 	42
scalar barabasi_100nodes_network.content_distribution 	repo-56 	97
scalar barabasi_100nodes_network.content_distribution 	repo-57 	45
scalar barabasi_100nodes_network.content_distribution 	repo-58 	37
scalar barabasi_100nodes_network.content_distribution 	repo-59 	3
scalar barabasi_100nodes_network.content_distribution 	repo-60 	82
scalar barabasi_100nodes_network.content_distribution 	repo-61 	14
scalar barabasi_100nodes_network.content_distribution 	repo-62 	53
scalar barabasi_100nodes_network.content_distribution 	repo-63 	48
scalar barabasi_100nodes_network.content_distribution 	repo-64 	32
scalar barabasi_100nodes_network.content_distribution 	repo-65 	81
scalar barabasi_100nodes_network.content_distribution 	repo-66 	41
scalar barabasi_100nodes_network.content_distribution 	repo-67 	90
scalar barabasi_100nodes_network.content_distribution 	repo-68 	38
scalar barabasi_100nodes_network.content_distribution 	repo-69 	66
scalar barabasi_100nodes_network.content_distribution 	repo-70 	67
scalar barabasi_100nodes_network.content_distribution 	repo-71 	95
scalar barabasi_100nodes_network.content_distribution 	repo-72 	99
scalar barabasi_100nodes_network.content_distribution 	repo-73 	21
scalar barabasi_100nodes_network.content_distribution 	repo-74 	43
scalar barabasi_100nodes_network.content_distribution 	repo-75 	87
scalar barabasi_100nodes_network.content_distribution 	repo-76 	39
scalar barabasi_100nodes_network.content_distribution 	repo-77 	91
scalar barabasi_100nodes_network.content_distribution 	repo-78 	52
scalar barabasi_100nodes_network.content_distribution 	repo-79 	76
scalar barabasi_100nodes_network.content_distribution 	repo-80 	68
scalar barabasi_100nodes_network.content_distribution 	repo-81 	70
scalar barabasi_100nodes_network.content_distribution 	repo-82 	2
scalar barabasi_100nodes_network.content_distribution 	repo-83 	58
scalar barabasi_100nodes_network.content_distribution 	repo-84 	1
scalar barabasi_100nodes_network.content_distribution 	repo-85 	63
scalar barabasi_100nodes_network.content_distribution 	repo-86 	83
scalar barabasi_100nodes_network.content_distribution 	repo-87 	55
scalar barabasi_100nodes_network.content_distribution 	repo-88 	20
scalar barabasi_100nodes_network.content_distribution 	repo-89 	60
scalar barabasi_100nodes_network.content_distribution 	repo-90 	61
scalar barabasi_100nodes_network.content_distribution 	repo-91 	19
scalar barabasi_100nodes_network.content_distribution 	repo-92 	35
scalar barabasi_100nodes_network.content_distribution 	repo-93 	10
scalar barabasi_100nodes_network.content_distribution 	repo-94 	59
scalar barabasi_100nodes_network.content_distribution 	repo-95 	98
scalar barabasi_100nodes_network.content_distribution 	repo-96 	56
scalar barabasi_100nodes_network.content_distribution 	repo-97 	26
scalar barabasi_100nodes_network.content_distribution 	repo-98 	47
scalar barabasi_100nodes_network.content_distribution 	repo-99 	24
scalar barabasi_100nodes_network.content_distribution 	client-0 	72
scalar barabasi_100nodes_network.content_distribution 	client-1 	54
scalar barabasi_100nodes_network.content_distribution 	client-2 	80
scalar barabasi_100nodes_network.content_distribution 	client-3 	21
scalar barabasi_100nodes_network.content_distribution 	client-4 	19
scalar barabasi_100nodes_network.content_distribution 	client-5 	95
scalar barabasi_100nodes_network.content_distribution 	client-6 	3
scalar barabasi_100nodes_network.content_distribution 	client-7 	98
scalar barabasi_100nodes_network.content_distribution 	client-8 	25
scalar barabasi_100nodes_network.content_distribution 	client-9 	41
scalar barabasi_100nodes_network.content_distribution 	client-10 	14
scalar barabasi_100nodes_network.content_distribution 	client-11 	73
scalar barabasi_100nodes_network.content_distribution 	client-12 	71
scalar barabasi_100nodes_network.content_distribution 	client-13 	38
scalar barabasi_100nodes_network.content_distribution 	client-14 	49
scalar barabasi_100nodes_network.content_distribution 	client-15 	22
scalar barabasi_100nodes_network.content_distribution 	client-16 	97
scalar barabasi_100nodes_network.content_distribution 	client-17 	47
scalar barabasi_100nodes_network.content_distribution 	client-18 	31
scalar barabasi_100nodes_network.content_distribution 	client-19 	46
scalar barabasi_100nodes_network.content_distribution 	client-20 	5
scalar barabasi_100nodes_network.content_distribution 	client-21 	76
scalar barabasi_100nodes_network.content_distribution 	client-22 	16
scalar barabasi_100nodes_network.content_distribution 	client-23 	92
scalar barabasi_100nodes_network.content_distribution 	client-24 	20
scalar barabasi_100nodes_network.content_distribution 	client-25 	82
scalar barabasi_100nodes_network.content_distribution 	client-26 	9
scalar barabasi_100nodes_network.content_distribution 	client-27 	56
scalar barabasi_100nodes_network.content_distribution 	client-28 	37
scalar barabasi_100nodes_network.content_distribution 	client-29 	6
scalar barabasi_100nodes_network.content_distribution 	client-30 	30
scalar barabasi_100nodes_network.content_distribution 	client-31 	67
scalar barabasi_100nodes_network.content_distribution 	client-32 	70
scalar barabasi_100nodes_network.content_distribution 	client-33 	53
scalar barabasi_100nodes_network.content_distribution 	client-34 	13
scalar barabasi_100nodes_network.content_distribution 	client-35 	10
scalar barabasi_100nodes_network.content_distribution 	client-36 	60
scalar barabasi_100nodes_network.content_distribution 	client-37 	33
scalar barabasi_100nodes_network.content_distribution 	client-38 	42
scalar barabasi_100nodes_network.content_distribution 	client-39 	0
scalar barabasi_100nodes_network.content_distribution 	client-40 	88
scalar barabasi_100nodes_network.content_distribution 	client-41 	36
scalar barabasi_100nodes_network.content_distribution 	client-42 	87
scalar barabasi_100nodes_network.content_distribution 	client-43 	66
scalar barabasi_100nodes_network.content_distribution 	client-44 	55
scalar barabasi_100nodes_network.content_distribution 	client-45 	17
scalar barabasi_100nodes_network.content_distribution 	client-46 	1
scalar barabasi_100nodes_network.content_distribution 	client-47 	51
scalar barabasi_100nodes_network.content_distribution 	client-48 	77
scalar barabasi_100nodes_network.content_distribution 	client-49 	7
scalar barabasi_100nodes_network.content_distribution 	client-50 	26
scalar barabasi_100nodes_network.content_distribution 	client-51 	58
scalar barabasi_100nodes_network.content_distribution 	client-52 	90
scalar barabasi_100nodes_network.content_distribution 	client-53 	40
scalar barabasi_100nodes_network.content_distribution 	client-54 	2
scalar barabasi_100nodes_network.content_distribution 	client-55 	23
scalar barabasi_100nodes_network.content_distribution 	client-56 	65
scalar barabasi_100nodes_network.content_distribution 	client-57 	4
scalar barabasi_100nodes_network.content_distribution 	client-58 	78
scalar barabasi_100nodes_network.content_distribution 	client-59 	99
scalar barabasi_100nodes_network.content_distribution 	client-60 	59
scalar barabasi_100nodes_network.content_distribution 	client-61 	86
scalar barabasi_100nodes_network.content_distribution 	client-62 	44
scalar barabasi_100nodes_network.content_distribution 	client-63 	35
scalar barabasi_100nodes_network.content_distribution 	client-64 	57
scalar barabasi_100nodes_network.content_distribution 	client-65 	52
scalar barabasi_100nodes_network.content_distribution 	client-66 	29
scalar barabasi_100nodes_network.content_distribution 	client-67 	32
scalar barabasi_100nodes_network.content_distribution 	client-68 	84
scalar barabasi_100nodes_network.content_distribution 	client-69 	75
scalar barabasi_100nodes_network.content_distribution 	client-70 	12
scalar barabasi_100nodes_network.content_distribution 	client-71 	96
scalar barabasi_100nodes_network.content_distribution 	client-72 	39
scalar barabasi_100nodes_network.content_distribution 	client-73 	69
scalar barabasi_100nodes_network.content_distribution 	client-74 	24
scalar barabasi_100nodes_network.content_distribution 	client-75 	83
scalar barabasi_100nodes_network.content_distribution 	client-76 	15
scalar barabasi_100nodes_network.content_distribution 	client-77 	63
scalar barabasi_100nodes_network.content_distribution 	client-78 	79
scalar barabasi_100nodes_network.content_distribution 	client-79 	89
scalar barabasi_100nodes_network.content_distribution 	client-80 	94
scalar barabasi_100nodes_network.content_distribution 	client-81 	18
scalar barabasi_100nodes_network.content_distribution 	client-82 	74
scalar barabasi_100nodes_network.content_distribution 	client-83 	62
scalar barabasi_100nodes_network.content_distribution 	client-84 	93
scalar barabasi_100nodes_network.content_distribution 	client-85 	48
scalar barabasi_100nodes_network.content_distribution 	client-86 	64
scalar barabasi_100nodes_network.content_distribution 	client-87 	8
scalar barabasi_100nodes_network.content_distribution 	client-88 	85
scalar barabasi_100nodes_network.content_distribution 	client-89 	81
scalar barabasi_100nodes_network.content_distribution 	client-90 	28
scalar barabasi_100nodes_network.content_distribution 	client-91 	34
scalar barabasi_100nodes_network.content_distribution 	client-92 	45
scalar barabasi_100nodes_network.content_distribution 	client-93 	68
scalar barabasi_100nodes_network.content_distribution 	client-94 	43
scalar barabasi_100nodes_network.content_distribution 	client-95 	91
scalar barabasi_100nodes_network.content_distribution 	client-96 	50
scalar barabasi_100nodes_network.content_distribution 	client-97 	27
scalar barabasi_100nodes_network.content_distribution 	client-98 	61
scalar barabasi_100nodes_network.content_distribution 	client-99 	11
scalar barabasi_100nodes_network.content_distribution 	repo-0_card 	250071
scalar barabasi_100nodes_network.content_distribution 	repo-0_price 	0
scalar barabasi_100nodes_network.content_distribution 	repo-1_card 	250237
scalar barabasi_100nodes_network.content_distribution 	repo-1_price 	0
scalar barabasi_100nodes_network.content_distribution 	repo-2_card 	249820
scalar barabasi_100nodes_network.content_distribution 	repo-2_price 	0
scalar barabasi_100nodes_network.content_distribution 	repo-3_card 	249872
scalar barabasi_100nodes_network.content_distribution 	repo-3_price 	0
scalar barabasi_100nodes_network.content_distribution 	repo-4_card 	0
scalar barabasi_100nodes_network.content_distribution 	repo-4_price 	0
scalar barabasi_100nodes_network.content_distribution 	repo-5_card 	0
scalar barabasi_100nodes_network.content_distribution 	repo-5_price 	0
scalar barabasi_100nodes_network.content_distribution 	repo-6_card 	0
scalar barabasi_100nodes_network.content_distribution 	repo-6_price 	0
scalar barabasi_100nodes_network.content_distribution 	repo-7_card 	0
scalar barabasi_100nodes_network.content_distribution 	repo-7_price 	0
scalar barabasi_100nodes_network.content_distribution 	repo-8_card 	0
scalar barabasi_100nodes_network.content_distribution 	repo-8_price 	0
scalar barabasi_100nodes_network.content_distribution 	repo-9_card 	0
scalar barabasi_100nodes_network.content_distribution 	repo-9_price 	0
scalar barabasi_100nodes_network.content_distribution 	repo-10_card 	0
scalar barabasi_100nodes_network.content_distribution 	repo-10_price 	0
scalar barabasi_100nodes_network.content_distribution 	repo-11_card 	0
scalar barabasi_100nodes_network.content_distribution 	repo-11_price 	0
scalar barabasi_100nodes_network.content_distribution 	repo-12_card 	0
scalar barabasi_100nodes_network.content_distribution 	repo-12_price 	0
scalar barabasi_100nodes_network.content_distribution 	repo-13_card 	0
scalar barabasi_100nodes_network.content_distribution 	repo-13_price 	0
scalar barabasi_100nodes_network.content_distribution 	repo-14_card 	0
scalar barabasi_100nodes_network.content_distribution 	repo-14_price 	0
scalar barabasi_100nodes_network.content_distribution 	repo-15_card 	0
scalar barabasi_100nodes_network.content_distribution 	repo-15_price 	0
scalar barabasi_100nodes_network.content_distribution 	repo-16_card 	0
scalar barabasi_100nodes_network.content_distribution 	repo-16_price 	0
scalar barabasi_100nodes_network.content_distribution 	repo-17_card 	0
scalar barabasi_100nodes_network.content_distribution 	repo-17_price 	0
scalar barabasi_100nodes_network.content_distribution 	repo-18_card 	0
scalar barabasi_100nodes_network.content_distribution 	repo-18_price 	0
scalar barabasi_100nodes_network.content_distribution 	repo-19_card 	0
scalar barabasi_100nodes_network.content_distribution 	repo-19_price 	0
scalar barabasi_100nodes_network.content_distribution 	repo-20_card 	0
scalar barabasi_100nodes_network.content_distribution 	repo-20_price 	0
scalar barabasi_100nodes_network.content_distribution 	repo-21_card 	0
scalar barabasi_100nodes_network.content_distribution 	repo-21_price 	0
scalar barabasi_100nodes_network.content_distribution 	repo-22_card 	0
scalar barabasi_100nodes_network.content_distribution 	repo-22_price 	0
scalar barabasi_100nodes_network.content_distribution 	repo-23_card 	0
scalar barabasi_100nodes_network.content_distribution 	repo-23_price 	0
scalar barabasi_100nodes_network.content_distribution 	repo-24_card 	0
scalar barabasi_100nodes_network.content_distribution 	repo-24_price 	0
scalar barabasi_100nodes_network.content_distribution 	repo-25_card 	0
scalar barabasi_100nodes_network.content_distribution 	repo-25_price 	0
scalar barabasi_100nodes_network.content_distribution 	repo-26_card 	0
scalar barabasi_100nodes_network.content_distribution 	repo-26_price 	0
scalar barabasi_100nodes_network.content_distribution 	repo-27_card 	0
scalar barabasi_100nodes_network.content_distribution 	repo-27_price 	0
scalar barabasi_100nodes_network.content_distribution 	repo-28_card 	0
scalar barabasi_100nodes_network.content_distribution 	repo-28_price 	0
scalar barabasi_100nodes_network.content_distribution 	repo-29_card 	0
scalar barabasi_100nodes_network.content_distribution 	repo-29_price 	0
scalar barabasi_100nodes_network.content_distribution 	repo-30_card 	0
scalar barabasi_100nodes_network.content_distribution 	repo-30_price 	0
scalar barabasi_100nodes_network.content_distribution 	repo-31_card 	0
scalar barabasi_100nodes_network.content_distribution 	repo-31_price 	0
scalar barabasi_100nodes_network.content_distribution 	repo-32_card 	0
scalar barabasi_100nodes_network.content_distribution 	repo-32_price 	0
scalar barabasi_100nodes_network.content_distribution 	repo-33_card 	0
scalar barabasi_100nodes_network.content_distribution 	repo-33_price 	0
scalar barabasi_100nodes_network.content_distribution 	repo-34_card 	0
scalar barabasi_100nodes_network.content_distribution 	repo-34_price 	0
scalar barabasi_100nodes_network.content_distribution 	repo-35_card 	0
scalar barabasi_100nodes_network.content_distribution 	repo-35_price 	0
scalar barabasi_100nodes_network.content_distribution 	repo-36_card 	0
scalar barabasi_100nodes_network.content_distribution 	repo-36_price 	0
scalar barabasi_100nodes_network.content_distribution 	repo-37_card 	0
scalar barabasi_100nodes_network.content_distribution 	repo-37_price 	0
scalar barabasi_100nodes_network.content_distribution 	repo-38_card 	0
scalar barabasi_100nodes_network.content_distribution 	repo-38_price 	0
scalar barabasi_100nodes_network.content_distribution 	repo-39_card 	0
scalar barabasi_100nodes_network.content_distribution 	repo-39_price 	0
scalar barabasi_100nodes_network.content_distribution 	repo-40_card 	0
scalar barabasi_100nodes_network.content_distribution 	repo-40_price 	0
scalar barabasi_100nodes_network.content_distribution 	repo-41_card 	0
scalar barabasi_100nodes_network.content_distribution 	repo-41_price 	0
scalar barabasi_100nodes_network.content_distribution 	repo-42_card 	0
scalar barabasi_100nodes_network.content_distribution 	repo-42_price 	0
scalar barabasi_100nodes_network.content_distribution 	repo-43_card 	0
scalar barabasi_100nodes_network.content_distribution 	repo-43_price 	0
scalar barabasi_100nodes_network.content_distribution 	repo-44_card 	0
scalar barabasi_100nodes_network.content_distribution 	repo-44_price 	0
scalar barabasi_100nodes_network.content_distribution 	repo-45_card 	0
scalar barabasi_100nodes_network.content_distribution 	repo-45_price 	0
scalar barabasi_100nodes_network.content_distribution 	repo-46_card 	0
scalar barabasi_100nodes_network.content_distribution 	repo-46_price 	0
scalar barabasi_100nodes_network.content_distribution 	repo-47_card 	0
scalar barabasi_100nodes_network.content_distribution 	repo-47_price 	0
scalar barabasi_100nodes_network.content_distribution 	repo-48_card 	0
scalar barabasi_100nodes_network.content_distribution 	repo-48_price 	0
scalar barabasi_100nodes_network.content_distribution 	repo-49_card 	0
scalar barabasi_100nodes_network.content_distribution 	repo-49_price 	0
scalar barabasi_100nodes_network.content_distribution 	repo-50_card 	0
scalar barabasi_100nodes_network.content_distribution 	repo-50_price 	0
scalar barabasi_100nodes_network.content_distribution 	repo-51_card 	0
scalar barabasi_100nodes_network.content_distribution 	repo-51_price 	0
scalar barabasi_100nodes_network.content_distribution 	repo-52_card 	0
scalar barabasi_100nodes_network.content_distribution 	repo-52_price 	0
scalar barabasi_100nodes_network.content_distribution 	repo-53_card 	0
scalar barabasi_100nodes_network.content_distribution 	repo-53_price 	0
scalar barabasi_100nodes_network.content_distribution 	repo-54_card 	0
scalar barabasi_100nodes_network.content_distribution 	repo-54_price 	0
scalar barabasi_100nodes_network.content_distribution 	repo-55_card 	0
scalar barabasi_100nodes_network.content_distribution 	repo-55_price 	0
scalar barabasi_100nodes_network.content_distribution 	repo-56_card 	0
scalar barabasi_100nodes_network.content_distribution 	repo-56_price 	0
scalar barabasi_100nodes_network.content_distribution 	repo-57_card 	0
scalar barabasi_100nodes_network.content_distribution 	repo-57_price 	0
scalar barabasi_100nodes_network.content_distribution 	repo-58_card 	0
scalar barabasi_100nodes_network.content_distribution 	repo-58_price 	0
scalar barabasi_100nodes_network.content_distribution 	repo-59_card 	0
scalar barabasi_100nodes_network.content_distribution 	repo-59_price 	0
scalar barabasi_100nodes_network.content_distribution 	repo-60_card 	0
scalar barabasi_100nodes_network.content_distribution 	repo-60_price 	0
scalar barabasi_100nodes_network.content_distribution 	repo-61_card 	0
scalar barabasi_100nodes_network.content_distribution 	repo-61_price 	0
scalar barabasi_100nodes_network.content_distribution 	repo-62_card 	0
scalar barabasi_100nodes_network.content_distribution 	repo-62_price 	0
scalar barabasi_100nodes_network.content_distribution 	repo-63_card 	0
scalar barabasi_100nodes_network.content_distribution 	repo-63_price 	0
scalar barabasi_100nodes_network.content_distribution 	repo-64_card 	0
scalar barabasi_100nodes_network.content_distribution 	repo-64_price 	0
scalar barabasi_100nodes_network.content_distribution 	repo-65_card 	0
scalar barabasi_100nodes_network.content_distribution 	repo-65_price 	0
scalar barabasi_100nodes_network.content_distribution 	repo-66_card 	0
scalar barabasi_100nodes_network.content_distribution 	repo-66_price 	0
scalar barabasi_100nodes_network.content_distribution 	repo-67_card 	0
scalar barabasi_100nodes_network.content_distribution 	repo-67_price 	0
scalar barabasi_100nodes_network.content_distribution 	repo-68_card 	0
scalar barabasi_100nodes_network.content_distribution 	repo-68_price 	0
scalar barabasi_100nodes_network.content_distribution 	repo-69_card 	0
scalar barabasi_100nodes_network.content_distribution 	repo-69_price 	0
scalar barabasi_100nodes_network.content_distribution 	repo-70_card 	0
scalar barabasi_100nodes_network.content_distribution 	repo-70_price 	0
scalar barabasi_100nodes_network.content_distribution 	repo-71_card 	0
scalar barabasi_100nodes_network.content_distribution 	repo-71_price 	0
scalar barabasi_100nodes_network.content_distribution 	repo-72_card 	0
scalar barabasi_100nodes_network.content_distribution 	repo-72_price 	0
scalar barabasi_100nodes_network.content_distribution 	repo-73_card 	0
scalar barabasi_100nodes_network.content_distribution 	repo-73_price 	0
scalar barabasi_100nodes_network.content_distribution 	repo-74_card 	0
scalar barabasi_100nodes_network.content_distribution 	repo-74_price 	0
scalar barabasi_100nodes_network.content_distribution 	repo-75_card 	0
scalar barabasi_100nodes_network.content_distribution 	repo-75_price 	0
scalar barabasi_100nodes_network.content_distribution 	repo-76_card 	0
scalar barabasi_100nodes_network.content_distribution 	repo-76_price 	0
scalar barabasi_100nodes_network.content_distribution 	repo-77_card 	0
scalar barabasi_100nodes_network.content_distribution 	repo-77_price 	0
scalar barabasi_100nodes_network.content_distribution 	repo-78_card 	0
scalar barabasi_100nodes_network.content_distribution 	repo-78_price 	0
scalar barabasi_100nodes_network.content_distribution 	repo-79_card 	0
scalar barabasi_100nodes_network.content_distribution 	repo-79_price 	0
scalar barabasi_100nodes_network.content_distribution 	repo-80_card 	0
scalar barabasi_100nodes_network.content_distribution 	repo-80_price 	0
scalar barabasi_100nodes_network.content_distribution 	repo-81_card 	0
scalar barabasi_100nodes_network.content_distribution 	repo-81_price 	0
scalar barabasi_100nodes_network.content_distribution 	repo-82_card 	0
scalar barabasi_100nodes_network.content_distribution 	repo-82_price 	0
scalar barabasi_100nodes_network.content_distribution 	repo-83_card 	0
scalar barabasi_100nodes_network.content_distribution 	repo-83_price 	0
scalar barabasi_100nodes_network.content_distribution 	repo-84_card 	0
scalar barabasi_100nodes_network.content_distribution 	repo-84_price 	0
scalar barabasi_100nodes_network.content_distribution 	repo-85_card 	0
scalar barabasi_100nodes_network.content_distribution 	repo-85_price 	0
scalar barabasi_100nodes_network.content_distribution 	repo-86_card 	0
scalar barabasi_100nodes_network.content_distribution 	repo-86_price 	0
scalar barabasi_100nodes_network.content_distribution 	repo-87_card 	0
scalar barabasi_100nodes_network.content_distribution 	repo-87_price 	0
scalar barabasi_100nodes_network.content_distribution 	repo-88_card 	0
scalar barabasi_100nodes_network.content_distribution 	repo-88_price 	0
scalar barabasi_100nodes_network.content_distribution 	repo-89_card 	0
scalar barabasi_100nodes_network.content_distribution 	repo-89_price 	0
scalar barabasi_100nodes_network.content_distribution 	repo-90_card 	0
scalar barabasi_100nodes_network.content_distribution 	repo-90_price 	0
scalar barabasi_100nodes_network.content_distribution 	repo-91_card 	0
scalar barabasi_100nodes_network.content_distribution 	repo-91_price 	0
scalar barabasi_100nodes_network.content_distribution 	repo-92_card 	0
scalar barabasi_100nodes_network.content_distribution 	repo-92_price 	0
scalar barabasi_100nodes_network.content_distribution 	repo-93_card 	0
scalar barabasi_100nodes_network.content_distribution 	repo-93_price 	0
scalar barabasi_100nodes_network.content_distribution 	repo-94_card 	0
scalar barabasi_100nodes_network.content_distribution 	repo-94_price 	0
scalar barabasi_100nodes_network.content_distribution 	repo-95_card 	0
scalar barabasi_100nodes_network.content_distribution 	repo-95_price 	0
scalar barabasi_100nodes_network.content_distribution 	repo-96_card 	0
scalar barabasi_100nodes_network.content_distribution 	repo-96_price 	0
scalar barabasi_100nodes_network.content_distribution 	repo-97_card 	0
scalar barabasi_100nodes_network.content_distribution 	repo-97_price 	0
scalar barabasi_100nodes_network.content_distribution 	repo-98_card 	0
scalar barabasi_100nodes_network.content_distribution 	repo-98_price 	0
scalar barabasi_100nodes_network.content_distribution 	repo-99_card 	0
scalar barabasi_100nodes_network.content_distribution 	repo-99_price 	0
scalar barabasi_100nodes_network.statistics 	stabilization_time 	352.4
scalar barabasi_100nodes_network.statistics 	p_hit 	0.11544525485268
scalar barabasi_100nodes_network.statistics 	interests 	967331.4
scalar barabasi_100nodes_network.statistics 	data 	491280.45
scalar barabasi_100nodes_network.statistics 	hdistance 	1.8433436382865
scalar barabasi_100nodes_network.statistics 	avg_time 	0
scalar barabasi_100nodes_network.statistics 	downloads 	17994514
scalar barabasi_100nodes_network.statistics 	total_cost 	0
scalar barabasi_100nodes_network.statistics 	total_replicas 	1000000
scalar barabasi_100nodes_network.statistics 	"representations_downloaded 0.379401:0:0:0:0.620599:" 	0
scalar barabasi_100nodes_network.statistics 	"slots_per_representation 100:233:500:833:1167:" 	0
scalar barabasi_100nodes_network.statistics 	inner_hit 	238.58388262111
scalar barabasi_100nodes_network.statistics 	execution_time 	2055
scalar barabasi_100nodes_network.node[0].core_layer 	interests[0] 	15089013
scalar barabasi_100nodes_network.node[0].core_layer 	data[0] 	9986448
scalar barabasi_100nodes_network.node[0].core_layer 	slots_sent[face$o[1]->client[0]] 	118168321
scalar barabasi_100nodes_network.node[0].core_layer 	slots_sent[face$o[2]->node[1]] 	100840379
scalar barabasi_100nodes_network.node[0].core_layer 	slots_sent[face$o[3]->node[2]] 	4624588650
scalar barabasi_100nodes_network.node[0].core_layer 	slots_sent[face$o[4]->node[5]] 	320305732
scalar barabasi_100nodes_network.node[0].core_layer 	slots_sent[face$o[5]->node[10]] 	195687985
scalar barabasi_100nodes_network.node[0].core_layer 	slots_sent[face$o[6]->node[11]] 	101490886
scalar barabasi_100nodes_network.node[0].core_layer 	slots_sent[face$o[7]->node[15]] 	183001006
scalar barabasi_100nodes_network.node[0].core_layer 	slots_sent[face$o[8]->node[21]] 	237025416
scalar barabasi_100nodes_network.node[0].core_layer 	slots_sent[face$o[9]->node[22]] 	71188932
scalar barabasi_100nodes_network.node[0].core_layer 	slots_sent[face$o[10]->node[28]] 	71156793
scalar barabasi_100nodes_network.node[0].core_layer 	slots_sent[face$o[11]->node[37]] 	100769965
scalar barabasi_100nodes_network.node[0].core_layer 	slots_sent[face$o[12]->node[44]] 	101178136
scalar barabasi_100nodes_network.node[0].core_layer 	slots_sent[face$o[13]->node[58]] 	195192987
scalar barabasi_100nodes_network.node[0].core_layer 	slots_sent[face$o[14]->node[73]] 	194950282
scalar barabasi_100nodes_network.node[0].core_layer 	slots_sent[face$o[15]->node[74]] 	101164767
scalar barabasi_100nodes_network.node[0].core_layer 	slots_sent[face$o[16]->node[93]] 	100147330
scalar barabasi_100nodes_network.node[0].content_store 	p_hit[0] 	0.023729915270137
scalar barabasi_100nodes_network.node[0].content_store 	hits[0] 	358061
scalar barabasi_100nodes_network.node[0].content_store 	misses[0] 	14730952
scalar barabasi_100nodes_network.node[0].content_store 	decision_yes[0] 	5155642
scalar barabasi_100nodes_network.node[0].content_store 	decision_no[0] 	4830806
scalar barabasi_100nodes_network.node[0].content_store 	decision_ratio[0] 	0.51626384075699
scalar barabasi_100nodes_network.node[0].proactive_component 	hdistance[0].proactive_component 	2.4215160061352
scalar barabasi_100nodes_network.node[0].proactive_component 	downloads[0].proactive_component 	5792404
scalar barabasi_100nodes_network.node[0].proactive_component 	avg_time[0].proactive_component 	0
scalar barabasi_100nodes_network.node[1].core_layer 	interests[1] 	244617
scalar barabasi_100nodes_network.node[1].core_layer 	data[1] 	145873
scalar barabasi_100nodes_network.node[1].core_layer 	slots_sent[face$o[1]->client[1]] 	140177615
scalar barabasi_100nodes_network.node[1].core_layer 	slots_sent[face$o[2]->node[0]] 	0
scalar barabasi_100nodes_network.node[1].content_store 	p_hit[1] 	0.40366777452099
scalar barabasi_100nodes_network.node[1].content_store 	hits[1] 	98744
scalar barabasi_100nodes_network.node[1].content_store 	misses[1] 	145873
scalar barabasi_100nodes_network.node[1].content_store 	decision_yes[1] 	80837
scalar barabasi_100nodes_network.node[1].content_store 	decision_no[1] 	65036
scalar barabasi_100nodes_network.node[1].content_store 	decision_ratio[1] 	0.5541601255887
scalar barabasi_100nodes_network.node[1].proactive_component 	hdistance[1].proactive_component 	3.6823698642453
scalar barabasi_100nodes_network.node[1].proactive_component 	downloads[1].proactive_component 	77861
scalar barabasi_100nodes_network.node[1].proactive_component 	avg_time[1].proactive_component 	0
scalar barabasi_100nodes_network.node[2].core_layer 	interests[2] 	14848023
scalar barabasi_100nodes_network.node[2].core_layer 	data[2] 	9738914
scalar barabasi_100nodes_network.node[2].core_layer 	slots_sent[face$o[1]->client[2]] 	121181340
scalar barabasi_100nodes_network.node[2].core_layer 	slots_sent[face$o[2]->node[0]] 	593468947
scalar barabasi_100nodes_network.node[2].core_layer 	slots_sent[face$o[3]->node[3]] 	195222176
scalar barabasi_100nodes_network.node[2].core_layer 	slots_sent[face$o[4]->node[4]] 	506542895
scalar barabasi_100nodes_network.node[2].core_layer 	slots_sent[face$o[5]->node[6]] 	101071484
scalar barabasi_100nodes_network.node[2].core_layer 	slots_sent[face$o[6]->node[7]] 	1201240917
scalar barabasi_100nodes_network.node[2].core_layer 	slots_sent[face$o[7]->node[8]] 	737543909
scalar barabasi_100nodes_network.node[2].core_layer 	slots_sent[face$o[8]->node[13]] 	441918142
scalar barabasi_100nodes_network.node[2].core_layer 	slots_sent[face$o[9]->node[16]] 	644194555
scalar barabasi_100nodes_network.node[2].core_layer 	slots_sent[face$o[10]->node[18]] 	273513860
scalar barabasi_100nodes_network.node[2].core_layer 	slots_sent[face$o[11]->node[25]] 	195016321
scalar barabasi_100nodes_network.node[2].core_layer 	slots_sent[face$o[12]->node[26]] 	272853824
scalar barabasi_100nodes_network.node[2].core_layer 	slots_sent[face$o[13]->node[29]] 	101270205
scalar barabasi_100nodes_network.node[2].core_layer 	slots_sent[face$o[14]->node[32]] 	167915294
scalar barabasi_100nodes_network.node[2].core_layer 	slots_sent[face$o[15]->node[33]] 	101132000
scalar barabasi_100nodes_network.node[2].core_layer 	slots_sent[face$o[16]->node[34]] 	100852799
scalar barabasi_100nodes_network.node[2].core_layer 	slots_sent[face$o[17]->node[36]] 	195546729
scalar barabasi_100nodes_network.node[2].core_layer 	slots_sent[face$o[18]->node[41]] 	467543816
scalar barabasi_100nodes_network.node[2].core_layer 	slots_sent[face$o[19]->node[45]] 	100408606
scalar barabasi_100nodes_network.node[2].core_layer 	slots_sent[face$o[20]->node[59]] 	101134466
scalar barabasi_100nodes_network.node[2].core_layer 	slots_sent[face$o[21]->node[62]] 	287136219
scalar barabasi_100nodes_network.node[2].core_layer 	slots_sent[face$o[22]->node[79]] 	100506665
scalar barabasi_100nodes_network.node[2].content_store 	p_hit[2] 	0.038556782946794
scalar barabasi_100nodes_network.node[2].content_store 	hits[2] 	572492
scalar barabasi_100nodes_network.node[2].content_store 	misses[2] 	14275531
scalar barabasi_100nodes_network.node[2].content_store 	decision_yes[2] 	5119206
scalar barabasi_100nodes_network.node[2].content_store 	decision_no[2] 	4619708
scalar barabasi_100nodes_network.node[2].content_store 	decision_ratio[2] 	0.52564444043761
scalar barabasi_100nodes_network.node[2].proactive_component 	hdistance[2].proactive_component 	3.2222638175041
scalar barabasi_100nodes_network.node[2].proactive_component 	downloads[2].proactive_component 	5537487
scalar barabasi_100nodes_network.node[2].proactive_component 	avg_time[2].proactive_component 	0
scalar barabasi_100nodes_network.node[3].core_layer 	interests[3] 	448124
scalar barabasi_100nodes_network.node[3].core_layer 	data[3] 	283135
scalar barabasi_100nodes_network.node[3].core_layer 	slots_sent[face$o[1]->client[3]] 	139533069
scalar barabasi_100nodes_network.node[3].core_layer 	slots_sent[face$o[2]->node[2]] 	0
scalar barabasi_100nodes_network.node[3].core_layer 	slots_sent[face$o[3]->node[52]] 	100364201
scalar barabasi_100nodes_network.node[3].content_store 	p_hit[3] 	0.23278824611045
scalar barabasi_100nodes_network.node[3].content_store 	hits[3] 	104318
scalar barabasi_100nodes_network.node[3].content_store 	misses[3] 	343806
scalar barabasi_100nodes_network.node[3].content_store 	decision_yes[3] 	156428
scalar barabasi_100nodes_network.node[3].content_store 	decision_no[3] 	126707
scalar barabasi_100nodes_network.node[3].content_store 	decision_ratio[3] 	0.55248556342381
scalar barabasi_100nodes_network.node[3].proactive_component 	hdistance[3].proactive_component 	4.2292474250551
scalar barabasi_100nodes_network.node[3].proactive_component 	downloads[3].proactive_component 	151945
scalar barabasi_100nodes_network.node[3].proactive_component 	avg_time[3].proactive_component 	0
scalar barabasi_100nodes_network.node[4].core_layer 	interests[4] 	1130871
scalar barabasi_100nodes_network.node[4].core_layer 	data[4] 	739971
scalar barabasi_100nodes_network.node[4].core_layer 	slots_sent[face$o[1]->client[4]] 	136839407
scalar barabasi_100nodes_network.node[4].core_layer 	slots_sent[face$o[2]->node[2]] 	0
scalar barabasi_100nodes_network.node[4].core_layer 	slots_sent[face$o[3]->node[27]] 	139261474
scalar barabasi_100nodes_network.node[4].core_layer 	slots_sent[face$o[4]->node[30]] 	195928979
scalar barabasi_100nodes_network.node[4].core_layer 	slots_sent[face$o[5]->node[85]] 	100231473
scalar barabasi_100nodes_network.node[4].content_store 	p_hit[4] 	0.11002581196264
scalar barabasi_100nodes_network.node[4].content_store 	hits[4] 	124425
scalar barabasi_100nodes_network.node[4].content_store 	misses[4] 	1006446
scalar barabasi_100nodes_network.node[4].content_store 	decision_yes[4] 	405385
scalar barabasi_100nodes_network.node[4].content_store 	decision_no[4] 	334586
scalar barabasi_100nodes_network.node[4].content_store 	decision_ratio[4] 	0.54783903693523
scalar barabasi_100nodes_network.node[4].proactive_component 	hdistance[4].proactive_component 	4.2523246132293
scalar barabasi_100nodes_network.node[4].proactive_component 	downloads[4].proactive_component 	401142
scalar barabasi_100nodes_network.node[4].proactive_component 	avg_time[4].proactive_component 	0
scalar barabasi_100nodes_network.node[5].core_layer 	interests[5] 	4961021
scalar barabasi_100nodes_network.node[5].core_layer 	data[5] 	3177445
scalar barabasi_100nodes_network.node[5].core_layer 	slots_sent[face$o[1]->client[5]] 	124766766
scalar barabasi_100nodes_network.node[5].core_layer 	slots_sent[face$o[2]->node[0]] 	1905680697
scalar barabasi_100nodes_network.node[5].core_layer 	slots_sent[face$o[3]->node[9]] 	72366673
scalar barabasi_100nodes_network.node[5].core_layer 	slots_sent[face$o[4]->node[35]] 	195368661
scalar barabasi_100nodes_network.node[5].content_store 	p_hit[5] 	0.060528870972326
scalar barabasi_100nodes_network.node[5].content_store 	hits[5] 	300285
scalar barabasi_100nodes_network.node[5].content_store 	misses[5] 	4660736
scalar barabasi_100nodes_network.node[5].content_store 	decision_yes[5] 	1614630
scalar barabasi_100nodes_network.node[5].content_store 	decision_no[5] 	1562815
scalar barabasi_100nodes_network.node[5].content_store 	decision_ratio[5] 	0.50815356363367
scalar barabasi_100nodes_network.node[5].proactive_component 	hdistance[5].proactive_component 	2.2076279241639
scalar barabasi_100nodes_network.node[5].proactive_component 	downloads[5].proactive_component 	1872672
scalar barabasi_100nodes_network.node[5].proactive_component 	avg_time[5].proactive_component 	0
scalar barabasi_100nodes_network.node[6].core_layer 	interests[6] 	244668
scalar barabasi_100nodes_network.node[6].core_layer 	data[6] 	145890
scalar barabasi_100nodes_network.node[6].core_layer 	slots_sent[face$o[1]->client[6]] 	140679464
scalar barabasi_100nodes_network.node[6].core_layer 	slots_sent[face$o[2]->node[2]] 	0
scalar barabasi_100nodes_network.node[6].content_store 	p_hit[6] 	0.40372259551719
scalar barabasi_100nodes_network.node[6].content_store 	hits[6] 	98778
scalar barabasi_100nodes_network.node[6].content_store 	misses[6] 	145890
scalar barabasi_100nodes_network.node[6].content_store 	decision_yes[6] 	81052
scalar barabasi_100nodes_network.node[6].content_store 	decision_no[6] 	64838
scalar barabasi_100nodes_network.node[6].content_store 	decision_ratio[6] 	0.55556926451436
scalar barabasi_100nodes_network.node[6].proactive_component 	hdistance[6].proactive_component 	4.228699147193
scalar barabasi_100nodes_network.node[6].proactive_component 	downloads[6].proactive_component 	77626
scalar barabasi_100nodes_network.node[6].proactive_component 	avg_time[6].proactive_component 	0
scalar barabasi_100nodes_network.node[7].core_layer 	interests[7] 	2670486
scalar barabasi_100nodes_network.node[7].core_layer 	data[7] 	1770799
scalar barabasi_100nodes_network.node[7].core_layer 	slots_sent[face$o[1]->client[7]] 	135639832
scalar barabasi_100nodes_network.node[7].core_layer 	slots_sent[face$o[2]->node[2]] 	0
scalar barabasi_100nodes_network.node[7].core_layer 	slots_sent[face$o[3]->node[23]] 	620478497
scalar barabasi_100nodes_network.node[7].core_layer 	slots_sent[face$o[4]->node[31]] 	377492599
scalar barabasi_100nodes_network.node[7].core_layer 	slots_sent[face$o[5]->node[49]] 	100229733
scalar barabasi_100nodes_network.node[7].core_layer 	slots_sent[face$o[6]->node[90]] 	70958669
scalar barabasi_100nodes_network.node[7].content_store 	p_hit[7] 	0.059595893781132
scalar barabasi_100nodes_network.node[7].content_store 	hits[7] 	159150
scalar barabasi_100nodes_network.node[7].content_store 	misses[7] 	2511336
scalar barabasi_100nodes_network.node[7].content_store 	decision_yes[7] 	959851
scalar barabasi_100nodes_network.node[7].content_store 	decision_no[7] 	810948
scalar barabasi_100nodes_network.node[7].content_store 	decision_ratio[7] 	0.54204401515926
scalar barabasi_100nodes_network.node[7].proactive_component 	hdistance[7].proactive_component 	4.2417864000939
scalar barabasi_100nodes_network.node[7].proactive_component 	downloads[7].proactive_component 	971742
scalar barabasi_100nodes_network.node[7].proactive_component 	avg_time[7].proactive_component 	0
scalar barabasi_100nodes_network.node[8].core_layer 	interests[8] 	1654893
scalar barabasi_100nodes_network.node[8].core_layer 	data[8] 	1080918
scalar barabasi_100nodes_network.node[8].core_layer 	slots_sent[face$o[1]->client[8]] 	136485144
scalar barabasi_100nodes_network.node[8].core_layer 	slots_sent[face$o[2]->node[2]] 	0
scalar barabasi_100nodes_network.node[8].core_layer 	slots_sent[face$o[3]->node[12]] 	100275889
scalar barabasi_100nodes_network.node[8].core_layer 	slots_sent[face$o[4]->node[14]] 	100230941
scalar barabasi_100nodes_network.node[8].core_layer 	slots_sent[face$o[5]->node[17]] 	100875881
scalar barabasi_100nodes_network.node[8].core_layer 	slots_sent[face$o[6]->node[39]] 	194911789
scalar barabasi_100nodes_network.node[8].core_layer 	slots_sent[face$o[7]->node[61]] 	100909493
scalar barabasi_100nodes_network.node[8].core_layer 	slots_sent[face$o[8]->node[66]] 	100697100
scalar barabasi_100nodes_network.node[8].content_store 	p_hit[8] 	0.091904431283473
scalar barabasi_100nodes_network.node[8].content_store 	hits[8] 	152092
scalar barabasi_100nodes_network.node[8].content_store 	misses[8] 	1502801
scalar barabasi_100nodes_network.node[8].content_store 	decision_yes[8] 	589927
scalar barabasi_100nodes_network.node[8].content_store 	decision_no[8] 	490991
scalar barabasi_100nodes_network.node[8].content_store 	decision_ratio[8] 	0.54576480362063
scalar barabasi_100nodes_network.node[8].proactive_component 	hdistance[8].proactive_component 	4.2325576255455
scalar barabasi_100nodes_network.node[8].proactive_component 	downloads[8].proactive_component 	588194
scalar barabasi_100nodes_network.node[8].proactive_component 	avg_time[8].proactive_component 	0
scalar barabasi_100nodes_network.node[9].core_layer 	interests[9] 	4339723
scalar barabasi_100nodes_network.node[9].core_layer 	repo_load[9] 	4149956
scalar barabasi_100nodes_network.node[9].core_layer 	data[9] 	105671
scalar barabasi_100nodes_network.node[9].core_layer 	slots_sent[face$o[1]->client[9]] 	118617821
scalar barabasi_100nodes_network.node[9].core_layer 	slots_sent[face$o[2]->node[5]] 	1720248978
scalar barabasi_100nodes_network.node[9].content_store 	p_hit[9] 	0.01937819533643
scalar barabasi_100nodes_network.node[9].content_store 	hits[9] 	84096
scalar barabasi_100nodes_network.node[9].content_store 	misses[9] 	4255627
scalar barabasi_100nodes_network.node[9].content_store 	decision_yes[9] 	57919
scalar barabasi_100nodes_network.node[9].content_store 	decision_no[9] 	4197708
scalar barabasi_100nodes_network.node[9].content_store 	decision_ratio[9] 	0.013609980385969
scalar barabasi_100nodes_network.node[9].proactive_component 	hdistance[9].proactive_component 	1.1190179907488
scalar barabasi_100nodes_network.node[9].proactive_component 	downloads[9].proactive_component 	1730167
scalar barabasi_100nodes_network.node[9].proactive_component 	avg_time[9].proactive_component 	0
scalar barabasi_100nodes_network.node[10].core_layer 	interests[10] 	449539
scalar barabasi_100nodes_network.node[10].core_layer 	data[10] 	284304
scalar barabasi_100nodes_network.node[10].core_layer 	slots_sent[face$o[1]->client[10]] 	138963425
scalar barabasi_100nodes_network.node[10].core_layer 	slots_sent[face$o[2]->node[0]] 	0
scalar barabasi_100nodes_network.node[10].core_layer 	slots_sent[face$o[3]->node[71]] 	100704122
scalar barabasi_100nodes_network.node[10].content_store 	p_hit[10] 	0.23186864765905
scalar barabasi_100nodes_network.node[10].content_store 	hits[10] 	104234
scalar barabasi_100nodes_network.node[10].content_store 	misses[10] 	345305
scalar barabasi_100nodes_network.node[10].content_store 	decision_yes[10] 	156755
scalar barabasi_100nodes_network.node[10].content_store 	decision_no[10] 	127549
scalar barabasi_100nodes_network.node[10].content_store 	decision_ratio[10] 	0.55136403286623
scalar barabasi_100nodes_network.node[10].proactive_component 	hdistance[10].proactive_component 	3.6863187495913
scalar barabasi_100nodes_network.node[10].proactive_component 	downloads[10].proactive_component 	152910
scalar barabasi_100nodes_network.node[10].proactive_component 	avg_time[10].proactive_component 	0
scalar barabasi_100nodes_network.node[11].core_layer 	interests[11] 	245905
scalar barabasi_100nodes_network.node[11].core_layer 	data[11] 	146819
scalar barabasi_100nodes_network.node[11].core_layer 	slots_sent[face$o[1]->client[11]] 	140731261
scalar barabasi_100nodes_network.node[11].core_layer 	slots_sent[face$o[2]->node[0]] 	0
scalar barabasi_100nodes_network.node[11].content_store 	p_hit[11] 	0.40294422642891
scalar barabasi_100nodes_network.node[11].content_store 	hits[11] 	99086
scalar barabasi_100nodes_network.node[11].content_store 	misses[11] 	146819
scalar barabasi_100nodes_network.node[11].content_store 	decision_yes[11] 	81358
scalar barabasi_100nodes_network.node[11].content_store 	decision_no[11] 	65461
scalar barabasi_100nodes_network.node[11].content_store 	decision_ratio[11] 	0.55413808839455
scalar barabasi_100nodes_network.node[11].proactive_component 	hdistance[11].proactive_component 	3.6848108686786
scalar barabasi_100nodes_network.node[11].proactive_component 	downloads[11].proactive_component 	78464
scalar barabasi_100nodes_network.node[11].proactive_component 	avg_time[11].proactive_component 	0
scalar barabasi_100nodes_network.node[12].core_layer 	interests[12] 	240083
scalar barabasi_100nodes_network.node[12].core_layer 	data[12] 	140975
scalar barabasi_100nodes_network.node[12].core_layer 	slots_sent[face$o[1]->client[12]] 	145672189
scalar barabasi_100nodes_network.node[12].core_layer 	slots_sent[face$o[2]->node[8]] 	0
scalar barabasi_100nodes_network.node[12].content_store 	p_hit[12] 	0.41280723749703
scalar barabasi_100nodes_network.node[12].content_store 	hits[12] 	99108
scalar barabasi_100nodes_network.node[12].content_store 	misses[12] 	140975
scalar barabasi_100nodes_network.node[12].content_store 	decision_yes[12] 	80767
scalar barabasi_100nodes_network.node[12].content_store 	decision_no[12] 	60208
scalar barabasi_100nodes_network.node[12].content_store 	decision_ratio[12] 	0.57291718389785
scalar barabasi_100nodes_network.node[12].proactive_component 	hdistance[12].proactive_component 	5.2333951403111
scalar barabasi_100nodes_network.node[12].proactive_component 	downloads[12].proactive_component 	72268
scalar barabasi_100nodes_network.node[12].proactive_component 	avg_time[12].proactive_component 	0
scalar barabasi_100nodes_network.node[13].core_layer 	interests[13] 	985675
scalar barabasi_100nodes_network.node[13].core_layer 	data[13] 	644925
scalar barabasi_100nodes_network.node[13].core_layer 	slots_sent[face$o[1]->client[13]] 	137814834
scalar barabasi_100nodes_network.node[13].core_layer 	slots_sent[face$o[2]->node[2]] 	0
scalar barabasi_100nodes_network.node[13].core_layer 	slots_sent[face$o[3]->node[67]] 	100305936
scalar barabasi_100nodes_network.node[13].core_layer 	slots_sent[face$o[4]->node[78]] 	261623389
scalar barabasi_100nodes_network.node[13].content_store 	p_hit[13] 	0.11883734496665
scalar barabasi_100nodes_network.node[13].content_store 	hits[13] 	117135
scalar barabasi_100nodes_network.node[13].content_store 	misses[13] 	868540
scalar barabasi_100nodes_network.node[13].content_store 	decision_yes[13] 	353726
scalar barabasi_100nodes_network.node[13].content_store 	decision_no[13] 	291199
scalar barabasi_100nodes_network.node[13].content_store 	decision_ratio[13] 	0.54847617940071
scalar barabasi_100nodes_network.node[13].proactive_component 	hdistance[13].proactive_component 	4.2423315781787
scalar barabasi_100nodes_network.node[13].proactive_component 	downloads[13].proactive_component 	349257
scalar barabasi_100nodes_network.node[13].proactive_component 	avg_time[13].proactive_component 	0
scalar barabasi_100nodes_network.node[14].core_layer 	interests[14] 	239829
scalar barabasi_100nodes_network.node[14].core_layer 	data[14] 	140995
scalar barabasi_100nodes_network.node[14].core_layer 	slots_sent[face$o[1]->client[14]] 	145232795
scalar barabasi_100nodes_network.node[14].core_layer 	slots_sent[face$o[2]->node[8]] 	0
scalar barabasi_100nodes_network.node[14].content_store 	p_hit[14] 	0.41210195597697
scalar barabasi_100nodes_network.node[14].content_store 	hits[14] 	98834
scalar barabasi_100nodes_network.node[14].content_store 	misses[14] 	140995
scalar barabasi_100nodes_network.node[14].content_store 	decision_yes[14] 	80723
scalar barabasi_100nodes_network.node[14].content_store 	decision_no[14] 	60272
scalar barabasi_100nodes_network.node[14].content_store 	decision_ratio[14] 	0.57252384836342
scalar barabasi_100nodes_network.node[14].proactive_component 	hdistance[14].proactive_component 	5.2341374248761
scalar barabasi_100nodes_network.node[14].proactive_component 	downloads[14].proactive_component 	72214
scalar barabasi_100nodes_network.node[14].proactive_component 	avg_time[14].proactive_component 	0
scalar barabasi_100nodes_network.node[15].core_layer 	interests[15] 	5222151
scalar barabasi_100nodes_network.node[15].core_layer 	repo_load[15] 	4806602
scalar barabasi_100nodes_network.node[15].core_layer 	data[15] 	265596
scalar barabasi_100nodes_network.node[15].core_layer 	slots_sent[face$o[1]->client[15]] 	101535396
scalar barabasi_100nodes_network.node[15].core_layer 	slots_sent[face$o[2]->node[0]] 	1933504083
scalar barabasi_100nodes_network.node[15].core_layer 	slots_sent[face$o[3]->node[40]] 	100574778
scalar barabasi_100nodes_network.node[15].core_layer 	slots_sent[face$o[4]->node[56]] 	72530408
scalar barabasi_100nodes_network.node[15].content_store 	p_hit[15] 	0.014871266648552
scalar barabasi_100nodes_network.node[15].content_store 	hits[15] 	77660
scalar barabasi_100nodes_network.node[15].content_store 	misses[15] 	5144491
scalar barabasi_100nodes_network.node[15].content_store 	decision_yes[15] 	146618
scalar barabasi_100nodes_network.node[15].content_store 	decision_no[15] 	4925580
scalar barabasi_100nodes_network.node[15].content_store 	decision_ratio[15] 	0.028906205948585
scalar barabasi_100nodes_network.node[15].proactive_component 	hdistance[15].proactive_component 	1.2015119022294
scalar barabasi_100nodes_network.node[15].proactive_component 	downloads[15].proactive_component 	2087172
scalar barabasi_100nodes_network.node[15].proactive_component 	avg_time[15].proactive_component 	0
scalar barabasi_100nodes_network.node[16].core_layer 	interests[16] 	1422482
scalar barabasi_100nodes_network.node[16].core_layer 	data[16] 	943001
scalar barabasi_100nodes_network.node[16].core_layer 	slots_sent[face$o[1]->client[16]] 	137072808
scalar barabasi_100nodes_network.node[16].core_layer 	slots_sent[face$o[2]->node[2]] 	0
scalar barabasi_100nodes_network.node[16].core_layer 	slots_sent[face$o[3]->node[19]] 	467381179
scalar barabasi_100nodes_network.node[16].core_layer 	slots_sent[face$o[4]->node[20]] 	100243683
scalar barabasi_100nodes_network.node[16].content_store 	p_hit[16] 	0.084304054462552
scalar barabasi_100nodes_network.node[16].content_store 	hits[16] 	119921
scalar barabasi_100nodes_network.node[16].content_store 	misses[16] 	1302561
scalar barabasi_100nodes_network.node[16].content_store 	decision_yes[16] 	515365
scalar barabasi_100nodes_network.node[16].content_store 	decision_no[16] 	427636
scalar barabasi_100nodes_network.node[16].content_store 	decision_ratio[16] 	0.54651585735328
scalar barabasi_100nodes_network.node[16].proactive_component 	hdistance[16].proactive_component 	4.2328451233345
scalar barabasi_100nodes_network.node[16].proactive_component 	downloads[16].proactive_component 	512143
scalar barabasi_100nodes_network.node[16].proactive_component 	avg_time[16].proactive_component 	0
scalar barabasi_100nodes_network.node[17].core_layer 	interests[17] 	241127
scalar barabasi_100nodes_network.node[17].core_layer 	data[17] 	141896
scalar barabasi_100nodes_network.node[17].core_layer 	slots_sent[face$o[1]->client[17]] 	145896407
scalar barabasi_100nodes_network.node[17].core_layer 	slots_sent[face$o[2]->node[8]] 	0
scalar barabasi_100nodes_network.node[17].content_store 	p_hit[17] 	0.41153002359752
scalar barabasi_100nodes_network.node[17].content_store 	hits[17] 	99231
scalar barabasi_100nodes_network.node[17].content_store 	misses[17] 	141896
scalar barabasi_100nodes_network.node[17].content_store 	decision_yes[17] 	81243
scalar barabasi_100nodes_network.node[17].content_store 	decision_no[17] 	60653
scalar barabasi_100nodes_network.node[17].content_store 	decision_ratio[17] 	0.57255313750916
scalar barabasi_100nodes_network.node[17].proactive_component 	hdistance[17].proactive_component 	5.2318356691399
scalar barabasi_100nodes_network.node[17].proactive_component 	downloads[17].proactive_component 	72780
scalar barabasi_100nodes_network.node[17].proactive_component 	avg_time[17].proactive_component 	0
scalar barabasi_100nodes_network.node[18].core_layer 	interests[18] 	908659
scalar barabasi_100nodes_network.node[18].core_layer 	repo_load[18] 	263700
scalar barabasi_100nodes_network.node[18].core_layer 	data[18] 	405024
scalar barabasi_100nodes_network.node[18].core_layer 	slots_sent[face$o[1]->client[18]] 	113375328
scalar barabasi_100nodes_network.node[18].core_layer 	slots_sent[face$o[2]->node[2]] 	0
scalar barabasi_100nodes_network.node[18].core_layer 	slots_sent[face$o[3]->node[53]] 	100821558
scalar barabasi_100nodes_network.node[18].core_layer 	slots_sent[face$o[4]->node[68]] 	101218628
scalar barabasi_100nodes_network.node[18].core_layer 	slots_sent[face$o[5]->node[72]] 	101474669
scalar barabasi_100nodes_network.node[18].content_store 	p_hit[18] 	0.1137940635596
scalar barabasi_100nodes_network.node[18].content_store 	hits[18] 	103400
scalar barabasi_100nodes_network.node[18].content_store 	misses[18] 	805259
scalar barabasi_100nodes_network.node[18].content_store 	decision_yes[18] 	218380
scalar barabasi_100nodes_network.node[18].content_store 	decision_no[18] 	450344
scalar barabasi_100nodes_network.node[18].content_store 	decision_ratio[18] 	0.32656222896143
scalar barabasi_100nodes_network.node[18].proactive_component 	hdistance[18].proactive_component 	3.1351814994388
scalar barabasi_100nodes_network.node[18].proactive_component 	downloads[18].proactive_component 	345676
scalar barabasi_100nodes_network.node[18].proactive_component 	avg_time[18].proactive_component 	0
scalar barabasi_100nodes_network.node[19].core_layer 	interests[19] 	1039300
scalar barabasi_100nodes_network.node[19].core_layer 	data[19] 	674301
scalar barabasi_100nodes_network.node[19].core_layer 	slots_sent[face$o[1]->client[19]] 	142016369
scalar barabasi_100nodes_network.node[19].core_layer 	slots_sent[face$o[2]->node[16]] 	0
scalar barabasi_100nodes_network.node[19].core_layer 	slots_sent[face$o[3]->node[63]] 	100182939
scalar barabasi_100nodes_network.node[19].core_layer 	slots_sent[face$o[4]->node[70]] 	100299773
scalar barabasi_100nodes_network.node[19].core_layer 	slots_sent[face$o[5]->node[80]] 	100487153
scalar barabasi_100nodes_network.node[19].core_layer 	slots_sent[face$o[6]->node[89]] 	100874290
scalar barabasi_100nodes_network.node[19].content_store 	p_hit[19] 	0.12466371596267
scalar barabasi_100nodes_network.node[19].content_store 	hits[19] 	129563
scalar barabasi_100nodes_network.node[19].content_store 	misses[19] 	909737
scalar barabasi_100nodes_network.node[19].content_store 	decision_yes[19] 	374837
scalar barabasi_100nodes_network.node[19].content_store 	decision_no[19] 	299464
scalar barabasi_100nodes_network.node[19].content_store 	decision_ratio[19] 	0.55588972877098
scalar barabasi_100nodes_network.node[19].proactive_component 	hdistance[19].proactive_component 	5.2349013682439
scalar barabasi_100nodes_network.node[19].proactive_component 	downloads[19].proactive_component 	358708
scalar barabasi_100nodes_network.node[19].proactive_component 	avg_time[19].proactive_component 	0
scalar barabasi_100nodes_network.node[20].core_layer 	interests[20] 	239864
scalar barabasi_100nodes_network.node[20].core_layer 	data[20] 	140845
scalar barabasi_100nodes_network.node[20].core_layer 	slots_sent[face$o[1]->client[20]] 	145666824
scalar barabasi_100nodes_network.node[20].core_layer 	slots_sent[face$o[2]->node[16]] 	0
scalar barabasi_100nodes_network.node[20].content_store 	p_hit[20] 	0.41281309408665
scalar barabasi_100nodes_network.node[20].content_store 	hits[20] 	99019
scalar barabasi_100nodes_network.node[20].content_store 	misses[20] 	140845
scalar barabasi_100nodes_network.node[20].content_store 	decision_yes[20] 	80749
scalar barabasi_100nodes_network.node[20].content_store 	decision_no[20] 	60096
scalar barabasi_100nodes_network.node[20].content_store 	decision_ratio[20] 	0.57331818665909
scalar barabasi_100nodes_network.node[20].proactive_component 	hdistance[20].proactive_component 	5.232158211522
scalar barabasi_100nodes_network.node[20].proactive_component 	downloads[20].proactive_component 	72106
scalar barabasi_100nodes_network.node[20].proactive_component 	avg_time[20].proactive_component 	0
scalar barabasi_100nodes_network.node[21].core_layer 	interests[21] 	539658
scalar barabasi_100nodes_network.node[21].core_layer 	data[21] 	345643
scalar barabasi_100nodes_network.node[21].core_layer 	slots_sent[face$o[1]->client[21]] 	138975695
scalar barabasi_100nodes_network.node[21].core_layer 	slots_sent[face$o[2]->node[0]] 	0
scalar barabasi_100nodes_network.node[21].core_layer 	slots_sent[face$o[3]->node[24]] 	70689967
scalar barabasi_100nodes_network.node[21].core_layer 	slots_sent[face$o[4]->node[57]] 	71845794
scalar barabasi_100nodes_network.node[21].content_store 	p_hit[21] 	0.19612606502637
scalar barabasi_100nodes_network.node[21].content_store 	hits[21] 	105841
scalar barabasi_100nodes_network.node[21].content_store 	misses[21] 	433817
scalar barabasi_100nodes_network.node[21].content_store 	decision_yes[21] 	189748
scalar barabasi_100nodes_network.node[21].content_store 	decision_no[21] 	155895
scalar barabasi_100nodes_network.node[21].content_store 	decision_ratio[21] 	0.54897104816241
scalar barabasi_100nodes_network.node[21].proactive_component 	hdistance[21].proactive_component 	3.725124736904
scalar barabasi_100nodes_network.node[21].proactive_component 	downloads[21].proactive_component 	187194
scalar barabasi_100nodes_network.node[21].proactive_component 	avg_time[21].proactive_component 	0
scalar barabasi_100nodes_network.node[22].core_layer 	interests[22] 	272872
scalar barabasi_100nodes_network.node[22].core_layer 	repo_load[22] 	94004
scalar barabasi_100nodes_network.node[22].core_layer 	data[22] 	102675
scalar barabasi_100nodes_network.node[22].core_layer 	slots_sent[face$o[1]->client[22]] 	111615670
scalar barabasi_100nodes_network.node[22].core_layer 	slots_sent[face$o[2]->node[0]] 	0
scalar barabasi_100nodes_network.node[22].content_store 	p_hit[22] 	0.27922615731918
scalar barabasi_100nodes_network.node[22].content_store 	hits[22] 	76193
scalar barabasi_100nodes_network.node[22].content_store 	misses[22] 	196679
scalar barabasi_100nodes_network.node[22].content_store 	decision_yes[22] 	57096
scalar barabasi_100nodes_network.node[22].content_store 	decision_no[22] 	139583
scalar barabasi_100nodes_network.node[22].content_store 	decision_ratio[22] 	0.29030043878604
scalar barabasi_100nodes_network.node[22].proactive_component 	hdistance[22].proactive_component 	2.4545372712462
scalar barabasi_100nodes_network.node[22].proactive_component 	downloads[22].proactive_component 	111091
scalar barabasi_100nodes_network.node[22].proactive_component 	avg_time[22].proactive_component 	0
scalar barabasi_100nodes_network.node[23].core_layer 	interests[23] 	1370686
scalar barabasi_100nodes_network.node[23].core_layer 	data[23] 	896556
scalar barabasi_100nodes_network.node[23].core_layer 	slots_sent[face$o[1]->client[23]] 	141048317
scalar barabasi_100nodes_network.node[23].core_layer 	slots_sent[face$o[2]->node[7]] 	0
scalar barabasi_100nodes_network.node[23].core_layer 	slots_sent[face$o[3]->node[46]] 	194347968
scalar barabasi_100nodes_network.node[23].core_layer 	slots_sent[face$o[4]->node[47]] 	71379978
scalar barabasi_100nodes_network.node[23].core_layer 	slots_sent[face$o[5]->node[51]] 	100631937
scalar barabasi_100nodes_network.node[23].core_layer 	slots_sent[face$o[6]->node[83]] 	100283743
scalar barabasi_100nodes_network.node[23].core_layer 	slots_sent[face$o[7]->node[86]] 	100387409
scalar barabasi_100nodes_network.node[23].content_store 	p_hit[23] 	0.10170235925661
scalar barabasi_100nodes_network.node[23].content_store 	hits[23] 	139402
scalar barabasi_100nodes_network.node[23].content_store 	misses[23] 	1231284
scalar barabasi_100nodes_network.node[23].content_store 	decision_yes[23] 	497491
scalar barabasi_100nodes_network.node[23].content_store 	decision_no[23] 	399065
scalar barabasi_100nodes_network.node[23].content_store 	decision_ratio[23] 	0.55489116128831
scalar barabasi_100nodes_network.node[23].proactive_component 	hdistance[23].proactive_component 	5.2427239882579
scalar barabasi_100nodes_network.node[23].proactive_component 	downloads[23].proactive_component 	478284
scalar barabasi_100nodes_network.node[23].proactive_component 	avg_time[23].proactive_component 	0
scalar barabasi_100nodes_network.node[24].core_layer 	interests[24] 	268765
scalar barabasi_100nodes_network.node[24].core_layer 	repo_load[24] 	93284
scalar barabasi_100nodes_network.node[24].core_layer 	data[24] 	99766
scalar barabasi_100nodes_network.node[24].core_layer 	slots_sent[face$o[1]->client[24]] 	113690117
scalar barabasi_100nodes_network.node[24].core_layer 	slots_sent[face$o[2]->node[21]] 	0
scalar barabasi_100nodes_network.node[24].content_store 	p_hit[24] 	0.28171450895764
scalar barabasi_100nodes_network.node[24].content_store 	hits[24] 	75715
scalar barabasi_100nodes_network.node[24].content_store 	misses[24] 	193050
scalar barabasi_100nodes_network.node[24].content_store 	decision_yes[24] 	56901
scalar barabasi_100nodes_network.node[24].content_store 	decision_no[24] 	136149
scalar barabasi_100nodes_network.node[24].content_store 	decision_ratio[24] 	0.29474747474747
scalar barabasi_100nodes_network.node[24].proactive_component 	hdistance[24].proactive_component 	2.9032648801759
scalar barabasi_100nodes_network.node[24].proactive_component 	downloads[24].proactive_component 	107324
scalar barabasi_100nodes_network.node[24].proactive_component 	avg_time[24].proactive_component 	0
scalar barabasi_100nodes_network.node[25].core_layer 	interests[25] 	447845
scalar barabasi_100nodes_network.node[25].core_layer 	data[25] 	282837
scalar barabasi_100nodes_network.node[25].core_layer 	slots_sent[face$o[1]->client[25]] 	139362293
scalar barabasi_100nodes_network.node[25].core_layer 	slots_sent[face$o[2]->node[2]] 	0
scalar barabasi_100nodes_network.node[25].core_layer 	slots_sent[face$o[3]->node[38]] 	100506506
scalar barabasi_100nodes_network.node[25].content_store 	p_hit[25] 	0.23279482856792
scalar barabasi_100nodes_network.node[25].content_store 	hits[25] 	104256
scalar barabasi_100nodes_network.node[25].content_store 	misses[25] 	343589
scalar barabasi_100nodes_network.node[25].content_store 	decision_yes[25] 	156263
scalar barabasi_100nodes_network.node[25].content_store 	decision_no[25] 	126574
scalar barabasi_100nodes_network.node[25].content_store 	decision_ratio[25] 	0.5524842930734
scalar barabasi_100nodes_network.node[25].proactive_component 	hdistance[25].proactive_component 	4.2306365611218
scalar barabasi_100nodes_network.node[25].proactive_component 	downloads[25].proactive_component 	151910
scalar barabasi_100nodes_network.node[25].proactive_component 	avg_time[25].proactive_component 	0
scalar barabasi_100nodes_network.node[26].core_layer 	interests[26] 	898705
scalar barabasi_100nodes_network.node[26].core_layer 	repo_load[26] 	287595
scalar barabasi_100nodes_network.node[26].core_layer 	data[26] 	396375
scalar barabasi_100nodes_network.node[26].core_layer 	slots_sent[face$o[1]->client[26]] 	100864562
scalar barabasi_100nodes_network.node[26].core_layer 	slots_sent[face$o[2]->node[2]] 	0
scalar barabasi_100nodes_network.node[26].core_layer 	slots_sent[face$o[3]->node[77]] 	195217951
scalar barabasi_100nodes_network.node[26].core_layer 	slots_sent[face$o[4]->node[91]] 	100518964
scalar barabasi_100nodes_network.node[26].content_store 	p_hit[26] 	0.093662547777079
scalar barabasi_100nodes_network.node[26].content_store 	hits[26] 	84175
scalar barabasi_100nodes_network.node[26].content_store 	misses[26] 	814530
scalar barabasi_100nodes_network.node[26].content_store 	decision_yes[26] 	218572
scalar barabasi_100nodes_network.node[26].content_store 	decision_no[26] 	465398
scalar barabasi_100nodes_network.node[26].content_store 	decision_ratio[26] 	0.31956372355513
scalar barabasi_100nodes_network.node[26].proactive_component 	hdistance[26].proactive_component 	3.0186156169099
scalar barabasi_100nodes_network.node[26].proactive_component 	downloads[26].proactive_component 	350351
scalar barabasi_100nodes_network.node[26].proactive_component 	avg_time[26].proactive_component 	0
scalar barabasi_100nodes_network.node[27].core_layer 	interests[27] 	481717
scalar barabasi_100nodes_network.node[27].core_layer 	repo_load[27] 	169622
scalar barabasi_100nodes_network.node[27].core_layer 	data[27] 	197340
scalar barabasi_100nodes_network.node[27].core_layer 	slots_sent[face$o[1]->client[27]] 	104815792
scalar barabasi_100nodes_network.node[27].core_layer 	slots_sent[face$o[2]->node[4]] 	0
scalar barabasi_100nodes_network.node[27].core_layer 	slots_sent[face$o[3]->node[99]] 	99729227
scalar barabasi_100nodes_network.node[27].content_store 	p_hit[27] 	0.15210798041174
scalar barabasi_100nodes_network.node[27].content_store 	hits[27] 	73273
scalar barabasi_100nodes_network.node[27].content_store 	misses[27] 	408444
scalar barabasi_100nodes_network.node[27].content_store 	decision_yes[27] 	112022
scalar barabasi_100nodes_network.node[27].content_store 	decision_no[27] 	254940
scalar barabasi_100nodes_network.node[27].content_store 	decision_ratio[27] 	0.3052686654204
scalar barabasi_100nodes_network.node[27].proactive_component 	hdistance[27].proactive_component 	3.303296027677
scalar barabasi_100nodes_network.node[27].proactive_component 	downloads[27].proactive_component 	191928
scalar barabasi_100nodes_network.node[27].proactive_component 	avg_time[27].proactive_component 	0
scalar barabasi_100nodes_network.node[28].core_layer 	interests[28] 	5165944
scalar barabasi_100nodes_network.node[28].core_layer 	repo_load[28] 	4987335
scalar barabasi_100nodes_network.node[28].core_layer 	data[28] 	102535
scalar barabasi_100nodes_network.node[28].core_layer 	slots_sent[face$o[1]->client[28]] 	111535599
scalar barabasi_100nodes_network.node[28].core_layer 	slots_sent[face$o[2]->node[0]] 	2067061087
scalar barabasi_100nodes_network.node[28].content_store 	p_hit[28] 	0.014726059748228
scalar barabasi_100nodes_network.node[28].content_store 	hits[28] 	76074
scalar barabasi_100nodes_network.node[28].content_store 	misses[28] 	5089870
scalar barabasi_100nodes_network.node[28].content_store 	decision_yes[28] 	57079
scalar barabasi_100nodes_network.node[28].content_store 	decision_no[28] 	5032791
scalar barabasi_100nodes_network.node[28].content_store 	decision_ratio[28] 	0.011214235334105
scalar barabasi_100nodes_network.node[28].proactive_component 	hdistance[28].proactive_component 	1.0781791766991
scalar barabasi_100nodes_network.node[28].proactive_component 	downloads[28].proactive_component 	2067021
scalar barabasi_100nodes_network.node[28].proactive_component 	avg_time[28].proactive_component 	0
scalar barabasi_100nodes_network.node[29].core_layer 	interests[29] 	245884
scalar barabasi_100nodes_network.node[29].core_layer 	data[29] 	146138
scalar barabasi_100nodes_network.node[29].core_layer 	slots_sent[face$o[1]->client[29]] 	141908646
scalar barabasi_100nodes_network.node[29].core_layer 	slots_sent[face$o[2]->node[2]] 	0
scalar barabasi_100nodes_network.node[29].content_store 	p_hit[29] 	0.40566283288055
scalar barabasi_100nodes_network.node[29].content_store 	hits[29] 	99746
scalar barabasi_100nodes_network.node[29].content_store 	misses[29] 	146138
scalar barabasi_100nodes_network.node[29].content_store 	decision_yes[29] 	81215
scalar barabasi_100nodes_network.node[29].content_store 	decision_no[29] 	64923
scalar barabasi_100nodes_network.node[29].content_store 	decision_ratio[29] 	0.5557418330619
scalar barabasi_100nodes_network.node[29].proactive_component 	hdistance[29].proactive_component 	4.2298178835532
scalar barabasi_100nodes_network.node[29].proactive_component 	downloads[29].proactive_component 	78027
scalar barabasi_100nodes_network.node[29].proactive_component 	avg_time[29].proactive_component 	0
scalar barabasi_100nodes_network.node[30].core_layer 	interests[30] 	441683
scalar barabasi_100nodes_network.node[30].core_layer 	data[30] 	278370
scalar barabasi_100nodes_network.node[30].core_layer 	slots_sent[face$o[1]->client[30]] 	144785643
scalar barabasi_100nodes_network.node[30].core_layer 	slots_sent[face$o[2]->node[4]] 	0
scalar barabasi_100nodes_network.node[30].core_layer 	slots_sent[face$o[3]->node[88]] 	100717496
scalar barabasi_100nodes_network.node[30].content_store 	p_hit[30] 	0.23720405811408
scalar barabasi_100nodes_network.node[30].content_store 	hits[30] 	104769
scalar barabasi_100nodes_network.node[30].content_store 	misses[30] 	336914
scalar barabasi_100nodes_network.node[30].content_store 	decision_yes[30] 	157537
scalar barabasi_100nodes_network.node[30].content_store 	decision_no[30] 	120833
scalar barabasi_100nodes_network.node[30].content_store 	decision_ratio[30] 	0.56592664439415
scalar barabasi_100nodes_network.node[30].proactive_component 	hdistance[30].proactive_component 	5.2319368841728
scalar barabasi_100nodes_network.node[30].proactive_component 	downloads[30].proactive_component 	145130
scalar barabasi_100nodes_network.node[30].proactive_component 	avg_time[30].proactive_component 	0
scalar barabasi_100nodes_network.node[31].core_layer 	interests[31] 	822635
scalar barabasi_100nodes_network.node[31].core_layer 	data[31] 	540881
scalar barabasi_100nodes_network.node[31].core_layer 	slots_sent[face$o[1]->client[31]] 	142958599
scalar barabasi_100nodes_network.node[31].core_layer 	slots_sent[face$o[2]->node[7]] 	0
scalar barabasi_100nodes_network.node[31].core_layer 	slots_sent[face$o[3]->node[65]] 	285846990
scalar barabasi_100nodes_network.node[31].content_store 	p_hit[31] 	0.13011116716405
scalar barabasi_100nodes_network.node[31].content_store 	hits[31] 	107034
scalar barabasi_100nodes_network.node[31].content_store 	misses[31] 	715601
scalar barabasi_100nodes_network.node[31].content_store 	decision_yes[31] 	303097
scalar barabasi_100nodes_network.node[31].content_store 	decision_no[31] 	237784
scalar barabasi_100nodes_network.node[31].content_store 	decision_ratio[31] 	0.56037649686345
scalar barabasi_100nodes_network.node[31].proactive_component 	hdistance[31].proactive_component 	5.23343600406
scalar barabasi_100nodes_network.node[31].proactive_component 	downloads[31].proactive_component 	284729
scalar barabasi_100nodes_network.node[31].proactive_component 	avg_time[31].proactive_component 	0
scalar barabasi_100nodes_network.node[32].core_layer 	interests[32] 	4549036
scalar barabasi_100nodes_network.node[32].core_layer 	repo_load[32] 	195282
scalar barabasi_100nodes_network.node[32].core_layer 	data[32] 	2749507
scalar barabasi_100nodes_network.node[32].core_layer 	slots_sent[face$o[1]->client[32]] 	103871333
scalar barabasi_100nodes_network.node[32].core_layer 	slots_sent[face$o[2]->node[2]] 	1811495552
scalar barabasi_100nodes_network.node[32].core_layer 	slots_sent[face$o[3]->node[43]] 	101408012
scalar barabasi_100nodes_network.node[32].core_layer 	slots_sent[face$o[4]->node[64]] 	72698031
scalar barabasi_100nodes_network.node[32].content_store 	p_hit[32] 	0.06659608761065
scalar barabasi_100nodes_network.node[32].content_store 	hits[32] 	302948
scalar barabasi_100nodes_network.node[32].content_store 	misses[32] 	4246088
scalar barabasi_100nodes_network.node[32].content_store 	decision_yes[32] 	1386487
scalar barabasi_100nodes_network.node[32].content_store 	decision_no[32] 	1558302
scalar barabasi_100nodes_network.node[32].content_store 	decision_ratio[32] 	0.470827281683
scalar barabasi_100nodes_network.node[32].proactive_component 	hdistance[32].proactive_component 	2.0999432528834
scalar barabasi_100nodes_network.node[32].proactive_component 	downloads[32].proactive_component 	1726960
scalar barabasi_100nodes_network.node[32].proactive_component 	avg_time[32].proactive_component 	0
scalar barabasi_100nodes_network.node[33].core_layer 	interests[33] 	244432
scalar barabasi_100nodes_network.node[33].core_layer 	data[33] 	145983
scalar barabasi_100nodes_network.node[33].core_layer 	slots_sent[face$o[1]->client[33]] 	140303522
scalar barabasi_100nodes_network.node[33].core_layer 	slots_sent[face$o[2]->node[2]] 	0
scalar barabasi_100nodes_network.node[33].content_store 	p_hit[33] 	0.40276641356287
scalar barabasi_100nodes_network.node[33].content_store 	hits[33] 	98449
scalar barabasi_100nodes_network.node[33].content_store 	misses[33] 	145983
scalar barabasi_100nodes_network.node[33].content_store 	decision_yes[33] 	81100
scalar barabasi_100nodes_network.node[33].content_store 	decision_no[33] 	64883
scalar barabasi_100nodes_network.node[33].content_store 	decision_ratio[33] 	0.55554413870108
scalar barabasi_100nodes_network.node[33].proactive_component 	hdistance[33].proactive_component 	4.2301849998717
scalar barabasi_100nodes_network.node[33].proactive_component 	downloads[33].proactive_component 	77946
scalar barabasi_100nodes_network.node[33].proactive_component 	avg_time[33].proactive_component 	0
scalar barabasi_100nodes_network.node[34].core_layer 	interests[34] 	244447
scalar barabasi_100nodes_network.node[34].core_layer 	data[34] 	145357
scalar barabasi_100nodes_network.node[34].core_layer 	slots_sent[face$o[1]->client[34]] 	141266009
scalar barabasi_100nodes_network.node[34].core_layer 	slots_sent[face$o[2]->node[2]] 	0
scalar barabasi_100nodes_network.node[34].content_store 	p_hit[34] 	0.4053639439224
scalar barabasi_100nodes_network.node[34].content_store 	hits[34] 	99090
scalar barabasi_100nodes_network.node[34].content_store 	misses[34] 	145357
scalar barabasi_100nodes_network.node[34].content_store 	decision_yes[34] 	80897
scalar barabasi_100nodes_network.node[34].content_store 	decision_no[34] 	64460
scalar barabasi_100nodes_network.node[34].content_store 	decision_ratio[34] 	0.55654010470772
scalar barabasi_100nodes_network.node[34].proactive_component 	hdistance[34].proactive_component 	4.2249514437395
scalar barabasi_100nodes_network.node[34].proactive_component 	downloads[34].proactive_component 	77230
scalar barabasi_100nodes_network.node[34].proactive_component 	avg_time[34].proactive_component 	0
scalar barabasi_100nodes_network.node[35].core_layer 	interests[35] 	448424
scalar barabasi_100nodes_network.node[35].core_layer 	data[35] 	282946
scalar barabasi_100nodes_network.node[35].core_layer 	slots_sent[face$o[1]->client[35]] 	140675134
scalar barabasi_100nodes_network.node[35].core_layer 	slots_sent[face$o[2]->node[5]] 	0
scalar barabasi_100nodes_network.node[35].core_layer 	slots_sent[face$o[3]->node[50]] 	100340732
scalar barabasi_100nodes_network.node[35].content_store 	p_hit[35] 	0.23406418924946
scalar barabasi_100nodes_network.node[35].content_store 	hits[35] 	104960
scalar barabasi_100nodes_network.node[35].content_store 	misses[35] 	343464
scalar barabasi_100nodes_network.node[35].content_store 	decision_yes[35] 	156583
scalar barabasi_100nodes_network.node[35].content_store 	decision_no[35] 	126363
scalar barabasi_100nodes_network.node[35].content_store 	decision_ratio[35] 	0.55340241600871
scalar barabasi_100nodes_network.node[35].proactive_component 	hdistance[35].proactive_component 	4.2208061217758
scalar barabasi_100nodes_network.node[35].proactive_component 	downloads[35].proactive_component 	151590
scalar barabasi_100nodes_network.node[35].proactive_component 	avg_time[35].proactive_component 	0
scalar barabasi_100nodes_network.node[36].core_layer 	interests[36] 	448580
scalar barabasi_100nodes_network.node[36].core_layer 	data[36] 	283617
scalar barabasi_100nodes_network.node[36].core_layer 	slots_sent[face$o[1]->client[36]] 	139313207
scalar barabasi_100nodes_network.node[36].core_layer 	slots_sent[face$o[2]->node[2]] 	0
scalar barabasi_100nodes_network.node[36].core_layer 	slots_sent[face$o[3]->node[75]] 	100618033
[...]
scalar barabasi_100nodes_network.client[8] 	avg_time[8].real 	0
scalar barabasi_100nodes_network.client[9] 	hdistance[9].real 	1.5669320147235
scalar barabasi_100nodes_network.client[9] 	downloads[9].real 	180392
scalar barabasi_100nodes_network.client[9] 	avg_time[9].real 	0
scalar barabasi_100nodes_network.client[10] 	hdistance[10].real 	1.5221567003663
scalar barabasi_100nodes_network.client[10] 	downloads[10].real 	179923
scalar barabasi_100nodes_network.client[10] 	avg_time[10].real 	0
scalar barabasi_100nodes_network.client[11] 	hdistance[11].real 	1.4801988428543
scalar barabasi_100nodes_network.client[11] 	downloads[11].real 	180444
scalar barabasi_100nodes_network.client[11] 	avg_time[11].real 	0
scalar barabasi_100nodes_network.client[12] 	hdistance[12].real 	1.9678610145935
scalar barabasi_100nodes_network.client[12] 	downloads[12].real 	179875
scalar barabasi_100nodes_network.client[12] 	avg_time[12].real 	0
scalar barabasi_100nodes_network.client[13] 	hdistance[13].real 	1.7772033398931
scalar barabasi_100nodes_network.client[13] 	downloads[13].real 	179886
scalar barabasi_100nodes_network.client[13] 	avg_time[13].real 	0
scalar barabasi_100nodes_network.client[14] 	hdistance[14].real 	1.9711567914367
scalar barabasi_100nodes_network.client[14] 	downloads[14].real 	179557
scalar barabasi_100nodes_network.client[14] 	avg_time[14].real 	0
scalar barabasi_100nodes_network.client[15] 	hdistance[15].real 	1.4620516495298
scalar barabasi_100nodes_network.client[15] 	downloads[15].real 	180021
scalar barabasi_100nodes_network.client[15] 	avg_time[15].real 	0
scalar barabasi_100nodes_network.client[16] 	hdistance[16].real 	1.8026822481914
scalar barabasi_100nodes_network.client[16] 	downloads[16].real 	179700
scalar barabasi_100nodes_network.client[16] 	avg_time[16].real 	0
scalar barabasi_100nodes_network.client[17] 	hdistance[17].real 	1.9745891374935
scalar barabasi_100nodes_network.client[17] 	downloads[17].real 	180474
scalar barabasi_100nodes_network.client[17] 	avg_time[17].real 	0
scalar barabasi_100nodes_network.client[18] 	hdistance[18].real 	1.5281348249697
scalar barabasi_100nodes_network.client[18] 	downloads[18].real 	180026
scalar barabasi_100nodes_network.client[18] 	avg_time[18].real 	0
scalar barabasi_100nodes_network.client[19] 	hdistance[19].real 	2.1386245734735
scalar barabasi_100nodes_network.client[19] 	downloads[19].real 	180235
scalar barabasi_100nodes_network.client[19] 	avg_time[19].real 	0
scalar barabasi_100nodes_network.client[20] 	hdistance[20].real 	1.9666013973566
scalar barabasi_100nodes_network.client[20] 	downloads[20].real 	179768
scalar barabasi_100nodes_network.client[20] 	avg_time[20].real 	0
scalar barabasi_100nodes_network.client[21] 	hdistance[21].real 	1.5401754637968
scalar barabasi_100nodes_network.client[21] 	downloads[21].real 	181006
scalar barabasi_100nodes_network.client[21] 	avg_time[21].real 	0
scalar barabasi_100nodes_network.client[22] 	hdistance[22].real 	1.3715271422312
scalar barabasi_100nodes_network.client[22] 	downloads[22].real 	180291
scalar barabasi_100nodes_network.client[22] 	avg_time[22].real 	0
scalar barabasi_100nodes_network.client[23] 	hdistance[23].real 	2.1554249588175
scalar barabasi_100nodes_network.client[23] 	downloads[23].real 	179688
scalar barabasi_100nodes_network.client[23] 	avg_time[23].real 	0
scalar barabasi_100nodes_network.client[24] 	hdistance[24].real 	1.6087315489406
scalar barabasi_100nodes_network.client[24] 	downloads[24].real 	179258
scalar barabasi_100nodes_network.client[24] 	avg_time[24].real 	0
scalar barabasi_100nodes_network.client[25] 	hdistance[25].real 	1.713253266964
scalar barabasi_100nodes_network.client[25] 	downloads[25].real 	179601
scalar barabasi_100nodes_network.client[25] 	avg_time[25].real 	0
scalar barabasi_100nodes_network.client[26] 	hdistance[26].real 	1.5769962611831
scalar barabasi_100nodes_network.client[26] 	downloads[26].real 	179736
scalar barabasi_100nodes_network.client[26] 	avg_time[26].real 	0
scalar barabasi_100nodes_network.client[27] 	hdistance[27].real 	1.7758289043563
scalar barabasi_100nodes_network.client[27] 	downloads[27].real 	179876
scalar barabasi_100nodes_network.client[27] 	avg_time[27].real 	0
scalar barabasi_100nodes_network.client[28] 	hdistance[28].real 	1.3733194528723
scalar barabasi_100nodes_network.client[28] 	downloads[28].real 	179629
scalar barabasi_100nodes_network.client[28] 	avg_time[28].real 	0
scalar barabasi_100nodes_network.client[29] 	hdistance[29].real 	1.6628942147756
scalar barabasi_100nodes_network.client[29] 	downloads[29].real 	180961
scalar barabasi_100nodes_network.client[29] 	avg_time[29].real 	0
scalar barabasi_100nodes_network.client[30] 	hdistance[30].real 	2.0409738258075
scalar barabasi_100nodes_network.client[30] 	downloads[30].real 	181018
scalar barabasi_100nodes_network.client[30] 	avg_time[30].real 	0
scalar barabasi_100nodes_network.client[31] 	hdistance[31].real 	2.0927059685503
scalar barabasi_100nodes_network.client[31] 	downloads[31].real 	180161
scalar barabasi_100nodes_network.client[31] 	avg_time[31].real 	0
scalar barabasi_100nodes_network.client[32] 	hdistance[32].real 	1.4722652275844
scalar barabasi_100nodes_network.client[32] 	downloads[32].real 	180856
scalar barabasi_100nodes_network.client[32] 	avg_time[32].real 	0
scalar barabasi_100nodes_network.client[33] 	hdistance[33].real 	1.6747573085899
scalar barabasi_100nodes_network.client[33] 	downloads[33].real 	179549
scalar barabasi_100nodes_network.client[33] 	avg_time[33].real 	0
scalar barabasi_100nodes_network.client[34] 	hdistance[34].real 	1.66043103113
scalar barabasi_100nodes_network.client[34] 	downloads[34].real 	179987
scalar barabasi_100nodes_network.client[34] 	avg_time[34].real 	0
scalar barabasi_100nodes_network.client[35] 	hdistance[35].real 	1.7425462110021
scalar barabasi_100nodes_network.client[35] 	downloads[35].real 	180747
scalar barabasi_100nodes_network.client[35] 	avg_time[35].real 	0
scalar barabasi_100nodes_network.client[36] 	hdistance[36].real 	1.7165454656733
scalar barabasi_100nodes_network.client[36] 	downloads[36].real 	179729
scalar barabasi_100nodes_network.client[36] 	avg_time[36].real 	0
scalar barabasi_100nodes_network.client[37] 	hdistance[37].real 	1.4710741045423
scalar barabasi_100nodes_network.client[37] 	downloads[37].real 	179908
scalar barabasi_100nodes_network.client[37] 	avg_time[37].real 	0
scalar barabasi_100nodes_network.client[38] 	hdistance[38].real 	1.9864445433307
scalar barabasi_100nodes_network.client[38] 	downloads[38].real 	179780
scalar barabasi_100nodes_network.client[38] 	avg_time[38].real 	0
scalar barabasi_100nodes_network.client[39] 	hdistance[39].real 	2.0320565940147
scalar barabasi_100nodes_network.client[39] 	downloads[39].real 	179807
scalar barabasi_100nodes_network.client[39] 	avg_time[39].real 	0
scalar barabasi_100nodes_network.client[40] 	hdistance[40].real 	1.6086557041112
scalar barabasi_100nodes_network.client[40] 	downloads[40].real 	179581
scalar barabasi_100nodes_network.client[40] 	avg_time[40].real 	0
scalar barabasi_100nodes_network.client[41] 	hdistance[41].real 	1.5494983259022
scalar barabasi_100nodes_network.client[41] 	downloads[41].real 	180097
scalar barabasi_100nodes_network.client[41] 	avg_time[41].real 	0
scalar barabasi_100nodes_network.client[42] 	hdistance[42].real 	1.6958396795376
scalar barabasi_100nodes_network.client[42] 	downloads[42].real 	179241
scalar barabasi_100nodes_network.client[42] 	avg_time[42].real 	0
scalar barabasi_100nodes_network.client[43] 	hdistance[43].real 	1.5261438816151
scalar barabasi_100nodes_network.client[43] 	downloads[43].real 	180023
scalar barabasi_100nodes_network.client[43] 	avg_time[43].real 	0
scalar barabasi_100nodes_network.client[44] 	hdistance[44].real 	1.4842191579088
scalar barabasi_100nodes_network.client[44] 	downloads[44].real 	179268
scalar barabasi_100nodes_network.client[44] 	avg_time[44].real 	0
scalar barabasi_100nodes_network.client[45] 	hdistance[45].real 	1.6649049274748
scalar barabasi_100nodes_network.client[45] 	downloads[45].real 	179179
scalar barabasi_100nodes_network.client[45] 	avg_time[45].real 	0
scalar barabasi_100nodes_network.client[46] 	hdistance[46].real 	2.3583406346002
scalar barabasi_100nodes_network.client[46] 	downloads[46].real 	180334
scalar barabasi_100nodes_network.client[46] 	avg_time[46].real 	0
scalar barabasi_100nodes_network.client[47] 	hdistance[47].real 	1.9257976736146
scalar barabasi_100nodes_network.client[47] 	downloads[47].real 	179334
scalar barabasi_100nodes_network.client[47] 	avg_time[47].real 	0
scalar barabasi_100nodes_network.client[48] 	hdistance[48].real 	1.710274604887
scalar barabasi_100nodes_network.client[48] 	downloads[48].real 	179822
scalar barabasi_100nodes_network.client[48] 	avg_time[48].real 	0
scalar barabasi_100nodes_network.client[49] 	hdistance[49].real 	1.974862446507
scalar barabasi_100nodes_network.client[49] 	downloads[49].real 	179930
scalar barabasi_100nodes_network.client[49] 	avg_time[49].real 	0
scalar barabasi_100nodes_network.client[50] 	hdistance[50].real 	2.0032370199393
scalar barabasi_100nodes_network.client[50] 	downloads[50].real 	179795
scalar barabasi_100nodes_network.client[50] 	avg_time[50].real 	0
scalar barabasi_100nodes_network.client[51] 	hdistance[51].real 	2.3077170293288
scalar barabasi_100nodes_network.client[51] 	downloads[51].real 	180471
scalar barabasi_100nodes_network.client[51] 	avg_time[51].real 	0
scalar barabasi_100nodes_network.client[52] 	hdistance[52].real 	1.9840904915916
scalar barabasi_100nodes_network.client[52] 	downloads[52].real 	179641
scalar barabasi_100nodes_network.client[52] 	avg_time[52].real 	0
scalar barabasi_100nodes_network.client[53] 	hdistance[53].real 	1.7120282611482
scalar barabasi_100nodes_network.client[53] 	downloads[53].real 	179469
scalar barabasi_100nodes_network.client[53] 	avg_time[53].real 	0
scalar barabasi_100nodes_network.client[54] 	hdistance[54].real 	1.7690881557117
scalar barabasi_100nodes_network.client[54] 	downloads[54].real 	179614
scalar barabasi_100nodes_network.client[54] 	avg_time[54].real 	0
scalar barabasi_100nodes_network.client[55] 	hdistance[55].real 	1.7128454341046
scalar barabasi_100nodes_network.client[55] 	downloads[55].real 	179231
scalar barabasi_100nodes_network.client[55] 	avg_time[55].real 	0
scalar barabasi_100nodes_network.client[56] 	hdistance[56].real 	1.3232737339051
scalar barabasi_100nodes_network.client[56] 	downloads[56].real 	180259
scalar barabasi_100nodes_network.client[56] 	avg_time[56].real 	0
scalar barabasi_100nodes_network.client[57] 	hdistance[57].real 	1.5022448468664
scalar barabasi_100nodes_network.client[57] 	downloads[57].real 	179745
scalar barabasi_100nodes_network.client[57] 	avg_time[57].real 	0
scalar barabasi_100nodes_network.client[58] 	hdistance[58].real 	1.5220705746089
scalar barabasi_100nodes_network.client[58] 	downloads[58].real 	179583
scalar barabasi_100nodes_network.client[58] 	avg_time[58].real 	0
scalar barabasi_100nodes_network.client[59] 	hdistance[59].real 	1.6724880874937
scalar barabasi_100nodes_network.client[59] 	downloads[59].real 	179853
scalar barabasi_100nodes_network.client[59] 	avg_time[59].real 	0
scalar barabasi_100nodes_network.client[60] 	hdistance[60].real 	2.3039334989192
scalar barabasi_100nodes_network.client[60] 	downloads[60].real 	179967
scalar barabasi_100nodes_network.client[60] 	avg_time[60].real 	0
scalar barabasi_100nodes_network.client[61] 	hdistance[61].real 	1.9762331316246
scalar barabasi_100nodes_network.client[61] 	downloads[61].real 	180293
scalar barabasi_100nodes_network.client[61] 	avg_time[61].real 	0
scalar barabasi_100nodes_network.client[62] 	hdistance[62].real 	1.7412679452297
scalar barabasi_100nodes_network.client[62] 	downloads[62].real 	180828
scalar barabasi_100nodes_network.client[62] 	avg_time[62].real 	0
scalar barabasi_100nodes_network.client[63] 	hdistance[63].real 	2.3228659539704
scalar barabasi_100nodes_network.client[63] 	downloads[63].real 	179319
scalar barabasi_100nodes_network.client[63] 	avg_time[63].real 	0
scalar barabasi_100nodes_network.client[64] 	hdistance[64].real 	1.4212267171534
scalar barabasi_100nodes_network.client[64] 	downloads[64].real 	179585
scalar barabasi_100nodes_network.client[64] 	avg_time[64].real 	0
scalar barabasi_100nodes_network.client[65] 	hdistance[65].real 	2.440928845287
scalar barabasi_100nodes_network.client[65] 	downloads[65].real 	179707
scalar barabasi_100nodes_network.client[65] 	avg_time[65].real 	0
scalar barabasi_100nodes_network.client[66] 	hdistance[66].real 	1.9700608096497
scalar barabasi_100nodes_network.client[66] 	downloads[66].real 	180399
scalar barabasi_100nodes_network.client[66] 	avg_time[66].real 	0
scalar barabasi_100nodes_network.client[67] 	hdistance[67].real 	1.9632136926811
scalar barabasi_100nodes_network.client[67] 	downloads[67].real 	180067
scalar barabasi_100nodes_network.client[67] 	avg_time[67].real 	0
scalar barabasi_100nodes_network.client[68] 	hdistance[68].real 	1.7166912030221
scalar barabasi_100nodes_network.client[68] 	downloads[68].real 	180005
scalar barabasi_100nodes_network.client[68] 	avg_time[68].real 	0
scalar barabasi_100nodes_network.client[69] 	hdistance[69].real 	1.6998828386521
scalar barabasi_100nodes_network.client[69] 	downloads[69].real 	179240
scalar barabasi_100nodes_network.client[69] 	avg_time[69].real 	0
scalar barabasi_100nodes_network.client[70] 	hdistance[70].real 	2.3146542398269
scalar barabasi_100nodes_network.client[70] 	downloads[70].real 	180255
scalar barabasi_100nodes_network.client[70] 	avg_time[70].real 	0
scalar barabasi_100nodes_network.client[71] 	hdistance[71].real 	1.8083088557833
scalar barabasi_100nodes_network.client[71] 	downloads[71].real 	180097
scalar barabasi_100nodes_network.client[71] 	avg_time[71].real 	0
scalar barabasi_100nodes_network.client[72] 	hdistance[72].real 	1.7184232144047
scalar barabasi_100nodes_network.client[72] 	downloads[72].real 	180164
scalar barabasi_100nodes_network.client[72] 	avg_time[72].real 	0
scalar barabasi_100nodes_network.client[73] 	hdistance[73].real 	1.514779063826
scalar barabasi_100nodes_network.client[73] 	downloads[73].real 	180052
scalar barabasi_100nodes_network.client[73] 	avg_time[73].real 	0
scalar barabasi_100nodes_network.client[74] 	hdistance[74].real 	1.4783224316191
scalar barabasi_100nodes_network.client[74] 	downloads[74].real 	180094
scalar barabasi_100nodes_network.client[74] 	avg_time[74].real 	0
scalar barabasi_100nodes_network.client[75] 	hdistance[75].real 	1.9870262528243
scalar barabasi_100nodes_network.client[75] 	downloads[75].real 	180133
scalar barabasi_100nodes_network.client[75] 	avg_time[75].real 	0
scalar barabasi_100nodes_network.client[76] 	hdistance[76].real 	1.8036588149493
scalar barabasi_100nodes_network.client[76] 	downloads[76].real 	179621
scalar barabasi_100nodes_network.client[76] 	avg_time[76].real 	0
scalar barabasi_100nodes_network.client[77] 	hdistance[77].real 	1.7646137641623
scalar barabasi_100nodes_network.client[77] 	downloads[77].real 	179437
scalar barabasi_100nodes_network.client[77] 	avg_time[77].real 	0
scalar barabasi_100nodes_network.client[78] 	hdistance[78].real 	2.077230801578
scalar barabasi_100nodes_network.client[78] 	downloads[78].real 	180731
scalar barabasi_100nodes_network.client[78] 	avg_time[78].real 	0
scalar barabasi_100nodes_network.client[79] 	hdistance[79].real 	1.6601270148184
scalar barabasi_100nodes_network.client[79] 	downloads[79].real 	179979
scalar barabasi_100nodes_network.client[79] 	avg_time[79].real 	0
scalar barabasi_100nodes_network.client[80] 	hdistance[80].real 	2.3216473565056
scalar barabasi_100nodes_network.client[80] 	downloads[80].real 	180216
scalar barabasi_100nodes_network.client[80] 	avg_time[80].real 	0
scalar barabasi_100nodes_network.client[81] 	hdistance[81].real 	1.9835638839293
scalar barabasi_100nodes_network.client[81] 	downloads[81].real 	179787
scalar barabasi_100nodes_network.client[81] 	avg_time[81].real 	0
scalar barabasi_100nodes_network.client[82] 	hdistance[82].real 	2.6376448080442
scalar barabasi_100nodes_network.client[82] 	downloads[82].real 	179807
scalar barabasi_100nodes_network.client[82] 	avg_time[82].real 	0
scalar barabasi_100nodes_network.client[83] 	hdistance[83].real 	2.3039259201722
scalar barabasi_100nodes_network.client[83] 	downloads[83].real 	180238
scalar barabasi_100nodes_network.client[83] 	avg_time[83].real 	0
scalar barabasi_100nodes_network.client[84] 	hdistance[84].real 	2.0439407313647
scalar barabasi_100nodes_network.client[84] 	downloads[84].real 	180129
scalar barabasi_100nodes_network.client[84] 	avg_time[84].real 	0
scalar barabasi_100nodes_network.client[85] 	hdistance[85].real 	1.9718516787151
scalar barabasi_100nodes_network.client[85] 	downloads[85].real 	179691
scalar barabasi_100nodes_network.client[85] 	avg_time[85].real 	0
scalar barabasi_100nodes_network.client[86] 	hdistance[86].real 	2.3060365907879
scalar barabasi_100nodes_network.client[86] 	downloads[86].real 	179936
scalar barabasi_100nodes_network.client[86] 	avg_time[86].real 	0
scalar barabasi_100nodes_network.client[87] 	hdistance[87].real 	2.3199562365669
scalar barabasi_100nodes_network.client[87] 	downloads[87].real 	180059
scalar barabasi_100nodes_network.client[87] 	avg_time[87].real 	0
scalar barabasi_100nodes_network.client[88] 	hdistance[88].real 	2.3132110672463
scalar barabasi_100nodes_network.client[88] 	downloads[88].real 	180099
scalar barabasi_100nodes_network.client[88] 	avg_time[88].real 	0
scalar barabasi_100nodes_network.client[89] 	hdistance[89].real 	2.3172596960862
scalar barabasi_100nodes_network.client[89] 	downloads[89].real 	181104
scalar barabasi_100nodes_network.client[89] 	avg_time[89].real 	0
scalar barabasi_100nodes_network.client[90] 	hdistance[90].real 	1.691654314408
scalar barabasi_100nodes_network.client[90] 	downloads[90].real 	180129
scalar barabasi_100nodes_network.client[90] 	avg_time[90].real 	0
scalar barabasi_100nodes_network.client[91] 	hdistance[91].real 	1.6829439057594
scalar barabasi_100nodes_network.client[91] 	downloads[91].real 	179965
scalar barabasi_100nodes_network.client[91] 	avg_time[91].real 	0
scalar barabasi_100nodes_network.client[92] 	hdistance[92].real 	2.3183103609521
scalar barabasi_100nodes_network.client[92] 	downloads[92].real 	179636
scalar barabasi_100nodes_network.client[92] 	avg_time[92].real 	0
scalar barabasi_100nodes_network.client[93] 	hdistance[93].real 	1.4656867391947
scalar barabasi_100nodes_network.client[93] 	downloads[93].real 	179333
scalar barabasi_100nodes_network.client[93] 	avg_time[93].real 	0
scalar barabasi_100nodes_network.client[94] 	hdistance[94].real 	1.8007089952382
scalar barabasi_100nodes_network.client[94] 	downloads[94].real 	179973
scalar barabasi_100nodes_network.client[94] 	avg_time[94].real 	0
scalar barabasi_100nodes_network.client[95] 	hdistance[95].real 	2.6390062691225
scalar barabasi_100nodes_network.client[95] 	downloads[95].real 	180089
scalar barabasi_100nodes_network.client[95] 	avg_time[95].real 	0
scalar barabasi_100nodes_network.client[96] 	hdistance[96].real 	2.0474361618515
scalar barabasi_100nodes_network.client[96] 	downloads[96].real 	179399
scalar barabasi_100nodes_network.client[96] 	avg_time[96].real 	0
scalar barabasi_100nodes_network.client[97] 	hdistance[97].real 	2.052538472203
scalar barabasi_100nodes_network.client[97] 	downloads[97].real 	180325
scalar barabasi_100nodes_network.client[97] 	avg_time[97].real 	0
scalar barabasi_100nodes_network.client[98] 	hdistance[98].real 	2.6499433673129
scalar barabasi_100nodes_network.client[98] 	downloads[98].real 	180108
scalar barabasi_100nodes_network.client[98] 	avg_time[98].real 	0
scalar barabasi_100nodes_network.client[99] 	hdistance[99].real 	1.9265291066798
scalar barabasi_100nodes_network.client[99] 	downloads[99].real 	178928
scalar barabasi_100nodes_network.client[99] 	avg_time[99].real 	0
