version 2
run General-32-20140908-16:57:45-9879
attr D costprobprodcorr0.01
attr F spr
attr R lru
attr a 1
attr configname General
attr csize 1e3
attr ctlg 1e5
attr datetime 20140908-16:57:45
attr experiment General
attr inifile omnetpp.ini
attr iterationvars "$net=level3_cost, $rep=5, $priceratiovalue=10, $weights=0.333_0.333_0.334, $lambda=100, $a=1, $ctlg=1e5, $F=spr, $ttl=10, $D=costprobprodcorr0.01, $xi=1, $R=lru, $csize=1e3, $pricebits=0, $window=60, $variance=0.05, $mytime=1800"
attr iterationvars2 "$net=level3_cost, $rep=5, $priceratiovalue=10, $weights=0.333_0.333_0.334, $lambda=100, $a=1, $ctlg=1e5, $F=spr, $ttl=10, $D=costprobprodcorr0.01, $xi=1, $R=lru, $csize=1e3, $pricebits=0, $window=60, $variance=0.05, $mytime=1800, $repetition=0"
attr lambda 100
attr measurement "$net=level3_cost, $rep=5, $priceratiovalue=10, $weights=0.333_0.333_0.334, $lambda=100, $a=1, $ctlg=1e5, $F=spr, $ttl=10, $D=costprobprodcorr0.01, $xi=1, $R=lru, $csize=1e3, $pricebits=0, $window=60, $variance=0.05, $mytime=1800"
attr mytime 1800
attr net level3_cost
attr network networks.${net=level3_cost,tiger_cost,dtelecom_cost}_network
attr pricebits 0
attr priceratiovalue 10
attr processid 9879
attr rep 5
attr repetition 0
attr replication #0
attr resultdir results
attr runnumber 32
attr seedset 5
attr ttl 10
attr variance 0.05
attr weights 0.333_0.333_0.334
attr window 60
attr xi 1

scalar . 	a 	1
scalar . 	csize 	1e3
scalar . 	ctlg 	1e5
scalar . 	lambda 	100
scalar . 	mytime 	1800
scalar . 	pricebits 	0
scalar . 	priceratiovalue 	10
scalar . 	rep 	5
scalar . 	ttl 	10
scalar . 	variance 	0.05
scalar . 	window 	60
scalar . 	xi 	1
scalar level3_cost_network.content_distribution 	repo-0 	41
scalar level3_cost_network.content_distribution 	repo-1 	5
scalar level3_cost_network.content_distribution 	repo-2 	1
scalar level3_cost_network.content_distribution 	client-0 	4
scalar level3_cost_network.content_distribution 	client-1 	31
scalar level3_cost_network.content_distribution 	client-2 	41
scalar level3_cost_network.content_distribution 	repo-0_card 	33099
scalar level3_cost_network.content_distribution 	repo-0_price 	1
scalar level3_cost_network.content_distribution 	repo-1_card 	33494
scalar level3_cost_network.content_distribution 	repo-1_price 	10
scalar level3_cost_network.content_distribution 	repo-2_card 	33407
scalar level3_cost_network.content_distribution 	repo-2_price 	0
scalar level3_cost_network.statistics 	repo_popularity[0] 	0.37980162396275
scalar level3_cost_network.statistics 	repo_popularity[1] 	0.28197656174319
scalar level3_cost_network.statistics 	repo_popularity[2] 	0.33822181429407
scalar level3_cost_network.statistics 	stabilization_time 	36060
scalar level3_cost_network.statistics 	p_hit 	0.083694135444243
scalar level3_cost_network.statistics 	interests 	33339.565217391
scalar level3_cost_network.statistics 	data 	21612.608695652
scalar level3_cost_network.statistics 	hdistance 	2.6644355814697
scalar level3_cost_network.statistics 	avg_time 	0.041108408632
scalar level3_cost_network.statistics 	downloads 	524749
scalar level3_cost_network.statistics 	total_cost 	1157828
scalar level3_cost_network.statistics 	total_replicas 	100000
scalar level3_cost_network.statistics 	inner_hit 	0.24607764855197
scalar level3_cost_network.statistics 	interests_sent 	539433
scalar level3_cost_network.node[0].core_layer 	interests[0] 	60780
scalar level3_cost_network.node[0].core_layer 	data[0] 	60780
scalar level3_cost_network.node[0].core_layer 	repo_int[0] 	395620
scalar level3_cost_network.node[0].content_store 	p_hit[0] 	0
scalar level3_cost_network.node[0].content_store 	hits[0] 	0
scalar level3_cost_network.node[0].content_store 	misses[0] 	60780
scalar level3_cost_network.node[0].content_store 	decision_yes[0] 	0
scalar level3_cost_network.node[0].content_store 	decision_no[0] 	60780
scalar level3_cost_network.node[0].content_store 	decision_ratio[0] 	0
scalar level3_cost_network.node[0].content_store 	correction_factor[0] 	0.0027225701061802
scalar level3_cost_network.node[0].content_store 	xi[0] 	1
scalar level3_cost_network.node[1].core_layer 	interests[1] 	178841
scalar level3_cost_network.node[1].core_layer 	repo_load[1] 	178841
scalar level3_cost_network.node[1].core_layer 	data[1] 	0
scalar level3_cost_network.node[1].content_store 	p_hit[1] 	0
scalar level3_cost_network.node[1].content_store 	hits[1] 	0
scalar level3_cost_network.node[1].content_store 	misses[1] 	178841
scalar level3_cost_network.node[1].content_store 	decision_yes[1] 	0
scalar level3_cost_network.node[1].content_store 	decision_no[1] 	178841
scalar level3_cost_network.node[1].content_store 	decision_ratio[1] 	0
scalar level3_cost_network.node[1].content_store 	correction_factor[1] 	0.0027225701061802
scalar level3_cost_network.node[1].content_store 	xi[1] 	1
scalar level3_cost_network.node[2].core_layer 	interests[2] 	243071
scalar level3_cost_network.node[2].core_layer 	data[2] 	222161
scalar level3_cost_network.node[2].content_store 	p_hit[2] 	0.082959299957626
scalar level3_cost_network.node[2].content_store 	hits[2] 	20165
scalar level3_cost_network.node[2].content_store 	misses[2] 	222906
scalar level3_cost_network.node[2].content_store 	decision_yes[2] 	212
scalar level3_cost_network.node[2].content_store 	decision_no[2] 	221949
scalar level3_cost_network.node[2].content_store 	decision_ratio[2] 	0.00095426289942879
scalar level3_cost_network.node[2].content_store 	correction_factor[2] 	0.0027225701061802
scalar level3_cost_network.node[2].content_store 	xi[2] 	1
scalar level3_cost_network.node[3].core_layer 	interests[3] 	50155
scalar level3_cost_network.node[3].core_layer 	data[3] 	40215
scalar level3_cost_network.node[3].content_store 	p_hit[3] 	0.19810587179743
scalar level3_cost_network.node[3].content_store 	hits[3] 	9936
scalar level3_cost_network.node[3].content_store 	misses[3] 	40219
scalar level3_cost_network.node[3].content_store 	decision_yes[3] 	903
scalar level3_cost_network.node[3].content_store 	decision_no[3] 	39312
scalar level3_cost_network.node[3].content_store 	decision_ratio[3] 	0.022454308093995
scalar level3_cost_network.node[3].content_store 	correction_factor[3] 	0.0027225701061802
scalar level3_cost_network.node[3].content_store 	xi[3] 	1
scalar level3_cost_network.node[4].core_layer 	interests[4] 	179952
scalar level3_cost_network.node[4].core_layer 	data[4] 	173376
scalar level3_cost_network.node[4].content_store 	p_hit[4] 	0.024317595803325
scalar level3_cost_network.node[4].content_store 	hits[4] 	4376
scalar level3_cost_network.node[4].content_store 	misses[4] 	175576
scalar level3_cost_network.node[4].content_store 	decision_yes[4] 	1069
scalar level3_cost_network.node[4].content_store 	decision_no[4] 	172307
scalar level3_cost_network.node[4].content_store 	decision_ratio[4] 	0.0061657899593946
scalar level3_cost_network.node[4].content_store 	correction_factor[4] 	0.0027225701061802
scalar level3_cost_network.node[4].content_store 	xi[4] 	1
scalar level3_cost_network.node[5].core_layer 	interests[5] 	113642
scalar level3_cost_network.node[5].core_layer 	repo_load[5] 	104561
scalar level3_cost_network.node[5].core_layer 	data[5] 	0
scalar level3_cost_network.node[5].content_store 	p_hit[5] 	0.079908836521709
scalar level3_cost_network.node[5].content_store 	hits[5] 	9081
scalar level3_cost_network.node[5].content_store 	misses[5] 	104561
scalar level3_cost_network.node[5].content_store 	decision_yes[5] 	2846
scalar level3_cost_network.node[5].content_store 	decision_no[5] 	101715
scalar level3_cost_network.node[5].content_store 	decision_ratio[5] 	0.027218561413911
scalar level3_cost_network.node[5].content_store 	correction_factor[5] 	0.0027225701061802
scalar level3_cost_network.node[5].content_store 	xi[5] 	1
scalar level3_cost_network.node[6].core_layer 	interests[6] 	0
scalar level3_cost_network.node[6].core_layer 	data[6] 	0
scalar level3_cost_network.node[6].content_store 	p_hit[6] 	-nan
scalar level3_cost_network.node[6].content_store 	hits[6] 	0
scalar level3_cost_network.node[6].content_store 	misses[6] 	0
scalar level3_cost_network.node[6].content_store 	decision_yes[6] 	0
scalar level3_cost_network.node[6].content_store 	decision_no[6] 	0
scalar level3_cost_network.node[6].content_store 	decision_ratio[6] 	0
scalar level3_cost_network.node[6].content_store 	correction_factor[6] 	0.0027225701061802
scalar level3_cost_network.node[6].content_store 	xi[6] 	1
scalar level3_cost_network.node[7].core_layer 	interests[7] 	81049
scalar level3_cost_network.node[7].core_layer 	data[7] 	75806
scalar level3_cost_network.node[7].content_store 	p_hit[7] 	0.064257424520969
scalar level3_cost_network.node[7].content_store 	hits[7] 	5208
scalar level3_cost_network.node[7].content_store 	misses[7] 	75841
scalar level3_cost_network.node[7].content_store 	decision_yes[7] 	1862
scalar level3_cost_network.node[7].content_store 	decision_no[7] 	73944
scalar level3_cost_network.node[7].content_store 	decision_ratio[7] 	0.024562699522465
scalar level3_cost_network.node[7].content_store 	correction_factor[7] 	0.0027225701061802
scalar level3_cost_network.node[7].content_store 	xi[7] 	1
scalar level3_cost_network.node[8].core_layer 	interests[8] 	0
scalar level3_cost_network.node[8].core_layer 	data[8] 	0
scalar level3_cost_network.node[8].content_store 	p_hit[8] 	-nan
scalar level3_cost_network.node[8].content_store 	hits[8] 	0
scalar level3_cost_network.node[8].content_store 	misses[8] 	0
scalar level3_cost_network.node[8].content_store 	decision_yes[8] 	0
scalar level3_cost_network.node[8].content_store 	decision_no[8] 	0
scalar level3_cost_network.node[8].content_store 	decision_ratio[8] 	0
scalar level3_cost_network.node[8].content_store 	correction_factor[8] 	0.0027225701061802
scalar level3_cost_network.node[8].content_store 	xi[8] 	1
scalar level3_cost_network.node[9].core_layer 	interests[9] 	0
scalar level3_cost_network.node[9].core_layer 	data[9] 	0
scalar level3_cost_network.node[9].content_store 	p_hit[9] 	-nan
scalar level3_cost_network.node[9].content_store 	hits[9] 	0
scalar level3_cost_network.node[9].content_store 	misses[9] 	0
scalar level3_cost_network.node[9].content_store 	decision_yes[9] 	0
scalar level3_cost_network.node[9].content_store 	decision_no[9] 	0
scalar level3_cost_network.node[9].content_store 	decision_ratio[9] 	0
scalar level3_cost_network.node[9].content_store 	correction_factor[9] 	0.0027225701061802
scalar level3_cost_network.node[9].content_store 	xi[9] 	1
scalar level3_cost_network.node[10].core_layer 	interests[10] 	0
scalar level3_cost_network.node[10].core_layer 	data[10] 	0
scalar level3_cost_network.node[10].content_store 	p_hit[10] 	-nan
scalar level3_cost_network.node[10].content_store 	hits[10] 	0
scalar level3_cost_network.node[10].content_store 	misses[10] 	0
scalar level3_cost_network.node[10].content_store 	decision_yes[10] 	0
scalar level3_cost_network.node[10].content_store 	decision_no[10] 	0
scalar level3_cost_network.node[10].content_store 	decision_ratio[10] 	0
scalar level3_cost_network.node[10].content_store 	correction_factor[10] 	0.0027225701061802
scalar level3_cost_network.node[10].content_store 	xi[10] 	1
scalar level3_cost_network.node[11].core_layer 	interests[11] 	162549
scalar level3_cost_network.node[11].core_layer 	data[11] 	153296
scalar level3_cost_network.node[11].content_store 	p_hit[11] 	0.056942829546783
scalar level3_cost_network.node[11].content_store 	hits[11] 	9256
scalar level3_cost_network.node[11].content_store 	misses[11] 	153293
scalar level3_cost_network.node[11].content_store 	decision_yes[11] 	1055
scalar level3_cost_network.node[11].content_store 	decision_no[11] 	152241
scalar level3_cost_network.node[11].content_store 	decision_ratio[11] 	0.0068821104268865
scalar level3_cost_network.node[11].content_store 	correction_factor[11] 	0.0027225701061802
scalar level3_cost_network.node[11].content_store 	xi[11] 	1
scalar level3_cost_network.node[12].core_layer 	interests[12] 	0
scalar level3_cost_network.node[12].core_layer 	data[12] 	0
scalar level3_cost_network.node[12].content_store 	p_hit[12] 	-nan
scalar level3_cost_network.node[12].content_store 	hits[12] 	0
scalar level3_cost_network.node[12].content_store 	misses[12] 	0
scalar level3_cost_network.node[12].content_store 	decision_yes[12] 	0
scalar level3_cost_network.node[12].content_store 	decision_no[12] 	0
scalar level3_cost_network.node[12].content_store 	decision_ratio[12] 	0
scalar level3_cost_network.node[12].content_store 	correction_factor[12] 	0.0027225701061802
scalar level3_cost_network.node[12].content_store 	xi[12] 	1
scalar level3_cost_network.node[13].core_layer 	interests[13] 	0
scalar level3_cost_network.node[13].core_layer 	data[13] 	0
scalar level3_cost_network.node[13].content_store 	p_hit[13] 	-nan
scalar level3_cost_network.node[13].content_store 	hits[13] 	0
scalar level3_cost_network.node[13].content_store 	misses[13] 	0
scalar level3_cost_network.node[13].content_store 	decision_yes[13] 	0
scalar level3_cost_network.node[13].content_store 	decision_no[13] 	0
scalar level3_cost_network.node[13].content_store 	decision_ratio[13] 	0
scalar level3_cost_network.node[13].content_store 	correction_factor[13] 	0.0027225701061802
scalar level3_cost_network.node[13].content_store 	xi[13] 	1
scalar level3_cost_network.node[14].core_layer 	interests[14] 	0
scalar level3_cost_network.node[14].core_layer 	data[14] 	0
scalar level3_cost_network.node[14].content_store 	p_hit[14] 	-nan
scalar level3_cost_network.node[14].content_store 	hits[14] 	0
scalar level3_cost_network.node[14].content_store 	misses[14] 	0
scalar level3_cost_network.node[14].content_store 	decision_yes[14] 	0
scalar level3_cost_network.node[14].content_store 	decision_no[14] 	0
scalar level3_cost_network.node[14].content_store 	decision_ratio[14] 	0
scalar level3_cost_network.node[14].content_store 	correction_factor[14] 	0.0027225701061802
scalar level3_cost_network.node[14].content_store 	xi[14] 	1
scalar level3_cost_network.node[15].core_layer 	interests[15] 	0
scalar level3_cost_network.node[15].core_layer 	data[15] 	0
scalar level3_cost_network.node[15].content_store 	p_hit[15] 	-nan
scalar level3_cost_network.node[15].content_store 	hits[15] 	0
scalar level3_cost_network.node[15].content_store 	misses[15] 	0
scalar level3_cost_network.node[15].content_store 	decision_yes[15] 	0
scalar level3_cost_network.node[15].content_store 	decision_no[15] 	0
scalar level3_cost_network.node[15].content_store 	decision_ratio[15] 	0
scalar level3_cost_network.node[15].content_store 	correction_factor[15] 	0.0027225701061802
scalar level3_cost_network.node[15].content_store 	xi[15] 	1
scalar level3_cost_network.node[16].core_layer 	interests[16] 	0
scalar level3_cost_network.node[16].core_layer 	data[16] 	0
scalar level3_cost_network.node[16].content_store 	p_hit[16] 	-nan
scalar level3_cost_network.node[16].content_store 	hits[16] 	0
scalar level3_cost_network.node[16].content_store 	misses[16] 	0
scalar level3_cost_network.node[16].content_store 	decision_yes[16] 	0
scalar level3_cost_network.node[16].content_store 	decision_no[16] 	0
scalar level3_cost_network.node[16].content_store 	decision_ratio[16] 	0
scalar level3_cost_network.node[16].content_store 	correction_factor[16] 	0.0027225701061802
scalar level3_cost_network.node[16].content_store 	xi[16] 	1
scalar level3_cost_network.node[17].core_layer 	interests[17] 	0
scalar level3_cost_network.node[17].core_layer 	data[17] 	0
scalar level3_cost_network.node[17].content_store 	p_hit[17] 	-nan
scalar level3_cost_network.node[17].content_store 	hits[17] 	0
scalar level3_cost_network.node[17].content_store 	misses[17] 	0
scalar level3_cost_network.node[17].content_store 	decision_yes[17] 	0
scalar level3_cost_network.node[17].content_store 	decision_no[17] 	0
scalar level3_cost_network.node[17].content_store 	decision_ratio[17] 	0
scalar level3_cost_network.node[17].content_store 	correction_factor[17] 	0.0027225701061802
scalar level3_cost_network.node[17].content_store 	xi[17] 	1
scalar level3_cost_network.node[18].core_layer 	interests[18] 	0
scalar level3_cost_network.node[18].core_layer 	data[18] 	0
scalar level3_cost_network.node[18].content_store 	p_hit[18] 	-nan
scalar level3_cost_network.node[18].content_store 	hits[18] 	0
scalar level3_cost_network.node[18].content_store 	misses[18] 	0
scalar level3_cost_network.node[18].content_store 	decision_yes[18] 	0
scalar level3_cost_network.node[18].content_store 	decision_no[18] 	0
scalar level3_cost_network.node[18].content_store 	decision_ratio[18] 	0
scalar level3_cost_network.node[18].content_store 	correction_factor[18] 	0.0027225701061802
scalar level3_cost_network.node[18].content_store 	xi[18] 	1
scalar level3_cost_network.node[19].core_layer 	interests[19] 	0
scalar level3_cost_network.node[19].core_layer 	data[19] 	0
scalar level3_cost_network.node[19].content_store 	p_hit[19] 	-nan
scalar level3_cost_network.node[19].content_store 	hits[19] 	0
scalar level3_cost_network.node[19].content_store 	misses[19] 	0
scalar level3_cost_network.node[19].content_store 	decision_yes[19] 	0
scalar level3_cost_network.node[19].content_store 	decision_no[19] 	0
scalar level3_cost_network.node[19].content_store 	decision_ratio[19] 	0
scalar level3_cost_network.node[19].content_store 	correction_factor[19] 	0.0027225701061802
scalar level3_cost_network.node[19].content_store 	xi[19] 	1
scalar level3_cost_network.node[20].core_layer 	interests[20] 	0
scalar level3_cost_network.node[20].core_layer 	data[20] 	0
scalar level3_cost_network.node[20].content_store 	p_hit[20] 	-nan
scalar level3_cost_network.node[20].content_store 	hits[20] 	0
scalar level3_cost_network.node[20].content_store 	misses[20] 	0
scalar level3_cost_network.node[20].content_store 	decision_yes[20] 	0
scalar level3_cost_network.node[20].content_store 	decision_no[20] 	0
scalar level3_cost_network.node[20].content_store 	decision_ratio[20] 	0
scalar level3_cost_network.node[20].content_store 	correction_factor[20] 	0.0027225701061802
scalar level3_cost_network.node[20].content_store 	xi[20] 	1
scalar level3_cost_network.node[21].core_layer 	interests[21] 	0
scalar level3_cost_network.node[21].core_layer 	data[21] 	0
scalar level3_cost_network.node[21].content_store 	p_hit[21] 	-nan
scalar level3_cost_network.node[21].content_store 	hits[21] 	0
scalar level3_cost_network.node[21].content_store 	misses[21] 	0
scalar level3_cost_network.node[21].content_store 	decision_yes[21] 	0
scalar level3_cost_network.node[21].content_store 	decision_no[21] 	0
scalar level3_cost_network.node[21].content_store 	decision_ratio[21] 	0
scalar level3_cost_network.node[21].content_store 	correction_factor[21] 	0.0027225701061802
scalar level3_cost_network.node[21].content_store 	xi[21] 	1
scalar level3_cost_network.node[22].core_layer 	interests[22] 	0
scalar level3_cost_network.node[22].core_layer 	data[22] 	0
scalar level3_cost_network.node[22].content_store 	p_hit[22] 	-nan
scalar level3_cost_network.node[22].content_store 	hits[22] 	0
scalar level3_cost_network.node[22].content_store 	misses[22] 	0
scalar level3_cost_network.node[22].content_store 	decision_yes[22] 	0
scalar level3_cost_network.node[22].content_store 	decision_no[22] 	0
scalar level3_cost_network.node[22].content_store 	decision_ratio[22] 	0
scalar level3_cost_network.node[22].content_store 	correction_factor[22] 	0.0027225701061802
scalar level3_cost_network.node[22].content_store 	xi[22] 	1
scalar level3_cost_network.node[23].core_layer 	interests[23] 	0
scalar level3_cost_network.node[23].core_layer 	data[23] 	0
scalar level3_cost_network.node[23].content_store 	p_hit[23] 	-nan
scalar level3_cost_network.node[23].content_store 	hits[23] 	0
scalar level3_cost_network.node[23].content_store 	misses[23] 	0
scalar level3_cost_network.node[23].content_store 	decision_yes[23] 	0
scalar level3_cost_network.node[23].content_store 	decision_no[23] 	0
scalar level3_cost_network.node[23].content_store 	decision_ratio[23] 	0
scalar level3_cost_network.node[23].content_store 	correction_factor[23] 	0.0027225701061802
scalar level3_cost_network.node[23].content_store 	xi[23] 	1
scalar level3_cost_network.node[24].core_layer 	interests[24] 	0
scalar level3_cost_network.node[24].core_layer 	data[24] 	0
scalar level3_cost_network.node[24].content_store 	p_hit[24] 	-nan
scalar level3_cost_network.node[24].content_store 	hits[24] 	0
scalar level3_cost_network.node[24].content_store 	misses[24] 	0
scalar level3_cost_network.node[24].content_store 	decision_yes[24] 	0
scalar level3_cost_network.node[24].content_store 	decision_no[24] 	0
scalar level3_cost_network.node[24].content_store 	decision_ratio[24] 	0
scalar level3_cost_network.node[24].content_store 	correction_factor[24] 	0.0027225701061802
scalar level3_cost_network.node[24].content_store 	xi[24] 	1
scalar level3_cost_network.node[25].core_layer 	interests[25] 	0
scalar level3_cost_network.node[25].core_layer 	data[25] 	0
scalar level3_cost_network.node[25].content_store 	p_hit[25] 	-nan
scalar level3_cost_network.node[25].content_store 	hits[25] 	0
scalar level3_cost_network.node[25].content_store 	misses[25] 	0
scalar level3_cost_network.node[25].content_store 	decision_yes[25] 	0
scalar level3_cost_network.node[25].content_store 	decision_no[25] 	0
scalar level3_cost_network.node[25].content_store 	decision_ratio[25] 	0
scalar level3_cost_network.node[25].content_store 	correction_factor[25] 	0.0027225701061802
scalar level3_cost_network.node[25].content_store 	xi[25] 	1
scalar level3_cost_network.node[26].core_layer 	interests[26] 	0
scalar level3_cost_network.node[26].core_layer 	data[26] 	0
scalar level3_cost_network.node[26].content_store 	p_hit[26] 	-nan
scalar level3_cost_network.node[26].content_store 	hits[26] 	0
scalar level3_cost_network.node[26].content_store 	misses[26] 	0
scalar level3_cost_network.node[26].content_store 	decision_yes[26] 	0
scalar level3_cost_network.node[26].content_store 	decision_no[26] 	0
scalar level3_cost_network.node[26].content_store 	decision_ratio[26] 	0
scalar level3_cost_network.node[26].content_store 	correction_factor[26] 	0.0027225701061802
scalar level3_cost_network.node[26].content_store 	xi[26] 	1
scalar level3_cost_network.node[27].core_layer 	interests[27] 	0
scalar level3_cost_network.node[27].core_layer 	data[27] 	0
scalar level3_cost_network.node[27].content_store 	p_hit[27] 	-nan
scalar level3_cost_network.node[27].content_store 	hits[27] 	0
scalar level3_cost_network.node[27].content_store 	misses[27] 	0
scalar level3_cost_network.node[27].content_store 	decision_yes[27] 	0
scalar level3_cost_network.node[27].content_store 	decision_no[27] 	0
scalar level3_cost_network.node[27].content_store 	decision_ratio[27] 	0
scalar level3_cost_network.node[27].content_store 	correction_factor[27] 	0.0027225701061802
scalar level3_cost_network.node[27].content_store 	xi[27] 	1
scalar level3_cost_network.node[28].core_layer 	interests[28] 	0
scalar level3_cost_network.node[28].core_layer 	data[28] 	0
scalar level3_cost_network.node[28].content_store 	p_hit[28] 	-nan
scalar level3_cost_network.node[28].content_store 	hits[28] 	0
scalar level3_cost_network.node[28].content_store 	misses[28] 	0
scalar level3_cost_network.node[28].content_store 	decision_yes[28] 	0
scalar level3_cost_network.node[28].content_store 	decision_no[28] 	0
scalar level3_cost_network.node[28].content_store 	decision_ratio[28] 	0
scalar level3_cost_network.node[28].content_store 	correction_factor[28] 	0.0027225701061802
scalar level3_cost_network.node[28].content_store 	xi[28] 	1
scalar level3_cost_network.node[29].core_layer 	interests[29] 	0
scalar level3_cost_network.node[29].core_layer 	data[29] 	0
scalar level3_cost_network.node[29].content_store 	p_hit[29] 	-nan
scalar level3_cost_network.node[29].content_store 	hits[29] 	0
scalar level3_cost_network.node[29].content_store 	misses[29] 	0
scalar level3_cost_network.node[29].content_store 	decision_yes[29] 	0
scalar level3_cost_network.node[29].content_store 	decision_no[29] 	0
scalar level3_cost_network.node[29].content_store 	decision_ratio[29] 	0
scalar level3_cost_network.node[29].content_store 	correction_factor[29] 	0.0027225701061802
scalar level3_cost_network.node[29].content_store 	xi[29] 	1
scalar level3_cost_network.node[30].core_layer 	interests[30] 	0
scalar level3_cost_network.node[30].core_layer 	data[30] 	0
scalar level3_cost_network.node[30].content_store 	p_hit[30] 	-nan
scalar level3_cost_network.node[30].content_store 	hits[30] 	0
scalar level3_cost_network.node[30].content_store 	misses[30] 	0
scalar level3_cost_network.node[30].content_store 	decision_yes[30] 	0
scalar level3_cost_network.node[30].content_store 	decision_no[30] 	0
scalar level3_cost_network.node[30].content_store 	decision_ratio[30] 	0
scalar level3_cost_network.node[30].content_store 	correction_factor[30] 	0.0027225701061802
scalar level3_cost_network.node[30].content_store 	xi[30] 	1
scalar level3_cost_network.node[31].core_layer 	interests[31] 	178990
scalar level3_cost_network.node[31].core_layer 	data[31] 	157493
scalar level3_cost_network.node[31].content_store 	p_hit[31] 	0.053773953852171
scalar level3_cost_network.node[31].content_store 	hits[31] 	9625
scalar level3_cost_network.node[31].content_store 	misses[31] 	169365
scalar level3_cost_network.node[31].content_store 	decision_yes[31] 	1046
scalar level3_cost_network.node[31].content_store 	decision_no[31] 	156447
scalar level3_cost_network.node[31].content_store 	decision_ratio[31] 	0.0066415650219375
scalar level3_cost_network.node[31].content_store 	correction_factor[31] 	0.0027225701061802
scalar level3_cost_network.node[31].content_store 	xi[31] 	1
scalar level3_cost_network.node[32].core_layer 	interests[32] 	0
scalar level3_cost_network.node[32].core_layer 	data[32] 	0
scalar level3_cost_network.node[32].content_store 	p_hit[32] 	-nan
scalar level3_cost_network.node[32].content_store 	hits[32] 	0
scalar level3_cost_network.node[32].content_store 	misses[32] 	0
scalar level3_cost_network.node[32].content_store 	decision_yes[32] 	0
scalar level3_cost_network.node[32].content_store 	decision_no[32] 	0
scalar level3_cost_network.node[32].content_store 	decision_ratio[32] 	0
scalar level3_cost_network.node[32].content_store 	correction_factor[32] 	0.0027225701061802
scalar level3_cost_network.node[32].content_store 	xi[32] 	1
scalar level3_cost_network.node[33].core_layer 	interests[33] 	0
scalar level3_cost_network.node[33].core_layer 	data[33] 	0
scalar level3_cost_network.node[33].content_store 	p_hit[33] 	-nan
scalar level3_cost_network.node[33].content_store 	hits[33] 	0
scalar level3_cost_network.node[33].content_store 	misses[33] 	0
scalar level3_cost_network.node[33].content_store 	decision_yes[33] 	0
scalar level3_cost_network.node[33].content_store 	decision_no[33] 	0
scalar level3_cost_network.node[33].content_store 	decision_ratio[33] 	0
scalar level3_cost_network.node[33].content_store 	correction_factor[33] 	0.0027225701061802
scalar level3_cost_network.node[33].content_store 	xi[33] 	1
scalar level3_cost_network.node[34].core_layer 	interests[34] 	0
scalar level3_cost_network.node[34].core_layer 	data[34] 	0
scalar level3_cost_network.node[34].content_store 	p_hit[34] 	-nan
scalar level3_cost_network.node[34].content_store 	hits[34] 	0
scalar level3_cost_network.node[34].content_store 	misses[34] 	0
scalar level3_cost_network.node[34].content_store 	decision_yes[34] 	0
scalar level3_cost_network.node[34].content_store 	decision_no[34] 	0
scalar level3_cost_network.node[34].content_store 	decision_ratio[34] 	0
scalar level3_cost_network.node[34].content_store 	correction_factor[34] 	0.0027225701061802
scalar level3_cost_network.node[34].content_store 	xi[34] 	1
scalar level3_cost_network.node[35].core_layer 	interests[35] 	0
scalar level3_cost_network.node[35].core_layer 	data[35] 	0
scalar level3_cost_network.node[35].content_store 	p_hit[35] 	-nan
scalar level3_cost_network.node[35].content_store 	hits[35] 	0
scalar level3_cost_network.node[35].content_store 	misses[35] 	0
scalar level3_cost_network.node[35].content_store 	decision_yes[35] 	0
scalar level3_cost_network.node[35].content_store 	decision_no[35] 	0
scalar level3_cost_network.node[35].content_store 	decision_ratio[35] 	0
scalar level3_cost_network.node[35].content_store 	correction_factor[35] 	0.0027225701061802
scalar level3_cost_network.node[35].content_store 	xi[35] 	1
scalar level3_cost_network.node[36].core_layer 	interests[36] 	0
scalar level3_cost_network.node[36].core_layer 	data[36] 	0
scalar level3_cost_network.node[36].content_store 	p_hit[36] 	-nan
scalar level3_cost_network.node[36].content_store 	hits[36] 	0
scalar level3_cost_network.node[36].content_store 	misses[36] 	0
scalar level3_cost_network.node[36].content_store 	decision_yes[36] 	0
scalar level3_cost_network.node[36].content_store 	decision_no[36] 	0
scalar level3_cost_network.node[36].content_store 	decision_ratio[36] 	0
scalar level3_cost_network.node[36].content_store 	correction_factor[36] 	0.0027225701061802
scalar level3_cost_network.node[36].content_store 	xi[36] 	1
scalar level3_cost_network.node[37].core_layer 	interests[37] 	0
scalar level3_cost_network.node[37].core_layer 	data[37] 	0
scalar level3_cost_network.node[37].content_store 	p_hit[37] 	-nan
scalar level3_cost_network.node[37].content_store 	hits[37] 	0
scalar level3_cost_network.node[37].content_store 	misses[37] 	0
scalar level3_cost_network.node[37].content_store 	decision_yes[37] 	0
scalar level3_cost_network.node[37].content_store 	decision_no[37] 	0
scalar level3_cost_network.node[37].content_store 	decision_ratio[37] 	0
scalar level3_cost_network.node[37].content_store 	correction_factor[37] 	0.0027225701061802
scalar level3_cost_network.node[37].content_store 	xi[37] 	1
scalar level3_cost_network.node[38].core_layer 	interests[38] 	0
scalar level3_cost_network.node[38].core_layer 	data[38] 	0
scalar level3_cost_network.node[38].content_store 	p_hit[38] 	-nan
scalar level3_cost_network.node[38].content_store 	hits[38] 	0
scalar level3_cost_network.node[38].content_store 	misses[38] 	0
scalar level3_cost_network.node[38].content_store 	decision_yes[38] 	0
scalar level3_cost_network.node[38].content_store 	decision_no[38] 	0
scalar level3_cost_network.node[38].content_store 	decision_ratio[38] 	0
scalar level3_cost_network.node[38].content_store 	correction_factor[38] 	0.0027225701061802
scalar level3_cost_network.node[38].content_store 	xi[38] 	1
scalar level3_cost_network.node[39].core_layer 	interests[39] 	0
scalar level3_cost_network.node[39].core_layer 	data[39] 	0
scalar level3_cost_network.node[39].content_store 	p_hit[39] 	-nan
scalar level3_cost_network.node[39].content_store 	hits[39] 	0
scalar level3_cost_network.node[39].content_store 	misses[39] 	0
scalar level3_cost_network.node[39].content_store 	decision_yes[39] 	0
scalar level3_cost_network.node[39].content_store 	decision_no[39] 	0
scalar level3_cost_network.node[39].content_store 	decision_ratio[39] 	0
scalar level3_cost_network.node[39].content_store 	correction_factor[39] 	0.0027225701061802
scalar level3_cost_network.node[39].content_store 	xi[39] 	1
scalar level3_cost_network.node[40].core_layer 	interests[40] 	0
scalar level3_cost_network.node[40].core_layer 	data[40] 	0
scalar level3_cost_network.node[40].content_store 	p_hit[40] 	-nan
scalar level3_cost_network.node[40].content_store 	hits[40] 	0
scalar level3_cost_network.node[40].content_store 	misses[40] 	0
scalar level3_cost_network.node[40].content_store 	decision_yes[40] 	0
scalar level3_cost_network.node[40].content_store 	decision_no[40] 	0
scalar level3_cost_network.node[40].content_store 	decision_ratio[40] 	0
scalar level3_cost_network.node[40].content_store 	correction_factor[40] 	0.0027225701061802
scalar level3_cost_network.node[40].content_store 	xi[40] 	1
scalar level3_cost_network.node[41].core_layer 	interests[41] 	284591
scalar level3_cost_network.node[41].core_layer 	repo_load[41] 	112218
scalar level3_cost_network.node[41].core_layer 	data[41] 	111053
scalar level3_cost_network.node[41].content_store 	p_hit[41] 	0.21331665442688
scalar level3_cost_network.node[41].content_store 	hits[41] 	60708
scalar level3_cost_network.node[41].content_store 	misses[41] 	223883
scalar level3_cost_network.node[41].content_store 	decision_yes[41] 	1253
scalar level3_cost_network.node[41].content_store 	decision_no[41] 	222018
scalar level3_cost_network.node[41].content_store 	decision_ratio[41] 	0.0056120140994576
scalar level3_cost_network.node[41].content_store 	correction_factor[41] 	0.0027225701061802
scalar level3_cost_network.node[41].content_store 	xi[41] 	1
scalar level3_cost_network.node[42].core_layer 	interests[42] 	0
scalar level3_cost_network.node[42].core_layer 	data[42] 	0
scalar level3_cost_network.node[42].content_store 	p_hit[42] 	-nan
scalar level3_cost_network.node[42].content_store 	hits[42] 	0
scalar level3_cost_network.node[42].content_store 	misses[42] 	0
scalar level3_cost_network.node[42].content_store 	decision_yes[42] 	0
scalar level3_cost_network.node[42].content_store 	decision_no[42] 	0
scalar level3_cost_network.node[42].content_store 	decision_ratio[42] 	0
scalar level3_cost_network.node[42].content_store 	correction_factor[42] 	0.0027225701061802
scalar level3_cost_network.node[42].content_store 	xi[42] 	1
scalar level3_cost_network.node[43].core_layer 	interests[43] 	0
scalar level3_cost_network.node[43].core_layer 	data[43] 	0
scalar level3_cost_network.node[43].content_store 	p_hit[43] 	-nan
scalar level3_cost_network.node[43].content_store 	hits[43] 	0
scalar level3_cost_network.node[43].content_store 	misses[43] 	0
scalar level3_cost_network.node[43].content_store 	decision_yes[43] 	0
scalar level3_cost_network.node[43].content_store 	decision_no[43] 	0
scalar level3_cost_network.node[43].content_store 	decision_ratio[43] 	0
scalar level3_cost_network.node[43].content_store 	correction_factor[43] 	0.0027225701061802
scalar level3_cost_network.node[43].content_store 	xi[43] 	1
scalar level3_cost_network.node[44].core_layer 	interests[44] 	0
scalar level3_cost_network.node[44].core_layer 	data[44] 	0
scalar level3_cost_network.node[44].content_store 	p_hit[44] 	-nan
scalar level3_cost_network.node[44].content_store 	hits[44] 	0
scalar level3_cost_network.node[44].content_store 	misses[44] 	0
scalar level3_cost_network.node[44].content_store 	decision_yes[44] 	0
scalar level3_cost_network.node[44].content_store 	decision_no[44] 	0
scalar level3_cost_network.node[44].content_store 	decision_ratio[44] 	0
scalar level3_cost_network.node[44].content_store 	correction_factor[44] 	0.0027225701061802
scalar level3_cost_network.node[44].content_store 	xi[44] 	1
scalar level3_cost_network.node[45].core_layer 	interests[45] 	0
scalar level3_cost_network.node[45].core_layer 	data[45] 	0
scalar level3_cost_network.node[45].content_store 	p_hit[45] 	-nan
scalar level3_cost_network.node[45].content_store 	hits[45] 	0
scalar level3_cost_network.node[45].content_store 	misses[45] 	0
scalar level3_cost_network.node[45].content_store 	decision_yes[45] 	0
scalar level3_cost_network.node[45].content_store 	decision_no[45] 	0
scalar level3_cost_network.node[45].content_store 	decision_ratio[45] 	0
scalar level3_cost_network.node[45].content_store 	correction_factor[45] 	0.0027225701061802
scalar level3_cost_network.node[45].content_store 	xi[45] 	1
scalar level3_cost_network.client[4] 	hdistance[4] 	2.5857824384536
scalar level3_cost_network.client[4] 	downloads[4] 	177752
scalar level3_cost_network.client[4] 	avg_time[4] 	0.022412534122
scalar level3_cost_network.client[4] 	interests_sent[4] 	179952
scalar level3_cost_network.client[31] 	hdistance[31] 	3.2572733038931
scalar level3_cost_network.client[31] 	downloads[31] 	167118
scalar level3_cost_network.client[31] 	avg_time[31] 	0.080306394727
scalar level3_cost_network.client[31] 	interests_sent[31] 	178990
scalar level3_cost_network.client[41] 	hdistance[41] 	2.1502510020625
scalar level3_cost_network.client[41] 	downloads[41] 	179879
scalar level3_cost_network.client[41] 	avg_time[41] 	0.020606297049
scalar level3_cost_network.client[41] 	interests_sent[41] 	180491
