version 2
run General-0-20150617-11:19:30-27358
attr D lce
attr F spr
attr R lru
attr a 1
attr configname General
attr datetime 20150617-11:19:30
attr experiment General
attr inifile omnetpp.ini
attr iterationvars "$net=abilene, $rep=0, $a=1, $F=spr, $ttl=1000, $D=lce, $R=lru, $window=60, $variance=0.05, $mytime=180"
attr iterationvars2 "$net=abilene, $rep=0, $a=1, $F=spr, $ttl=1000, $D=lce, $R=lru, $window=60, $variance=0.05, $mytime=180, $repetition=0"
attr measurement "$net=abilene, $rep=0, $a=1, $F=spr, $ttl=1000, $D=lce, $R=lru, $window=60, $variance=0.05, $mytime=180"
attr mytime 180
attr net abilene
attr network networks.${net=abilene}_network
attr processid 27358
attr rep 0
attr repetition 0
attr replication #0
attr resultdir results
attr runnumber 0
attr seedset 0
attr ttl 1000
attr variance 0.05
attr window 60

scalar . 	a 	1
scalar . 	mytime 	180
scalar . 	rep 	0
scalar . 	ttl 	1000
scalar . 	variance 	0.05
scalar . 	window 	60
scalar abilene_network.content_distribution 	repo-0 	5
scalar abilene_network.content_distribution 	client-0 	8
scalar abilene_network.content_distribution 	client-1 	9
scalar abilene_network.content_distribution 	client-2 	5
scalar abilene_network.content_distribution 	client-3 	0
scalar abilene_network.content_distribution 	client-4 	1
scalar abilene_network.content_distribution 	client-5 	7
scalar abilene_network.content_distribution 	client-6 	6
scalar abilene_network.content_distribution 	client-7 	2
scalar abilene_network.content_distribution 	client-8 	4
scalar abilene_network.content_distribution 	client-9 	10
scalar abilene_network.content_distribution 	client-10 	3
scalar abilene_network.content_distribution 	repo-0_card 	1000
scalar abilene_network.content_distribution 	repo-0_price 	0
scalar abilene_network.statistics 	stabilization_time 	60.2
scalar abilene_network.statistics 	p_hit 	0.082322236535507
scalar abilene_network.statistics 	interests 	54269
scalar abilene_network.statistics 	data 	36257.909090909
scalar abilene_network.statistics 	hdistance 	2.8541706157489
scalar abilene_network.statistics 	avg_time 	0.011692780276
scalar abilene_network.statistics 	downloads 	195108
scalar abilene_network.statistics 	total_cost 	0
scalar abilene_network.statistics 	total_replicas 	1000
scalar abilene_network.statistics 	inner_hit 	0.27671341000882
scalar abilene_network.node[0].core_layer 	interests[0] 	17974
scalar abilene_network.node[0].core_layer 	data[0] 	13949
scalar abilene_network.node[0].core_layer 	repo_int[0] 	141119
scalar abilene_network.node[0].content_store 	p_hit[0] 	0.2006787582063
scalar abilene_network.node[0].content_store 	hits[0] 	3607
scalar abilene_network.node[0].content_store 	misses[0] 	14367
scalar abilene_network.node[0].content_store 	decision_yes[0] 	13949
scalar abilene_network.node[0].content_store 	decision_no[0] 	0
scalar abilene_network.node[0].content_store 	decision_ratio[0] 	1
scalar abilene_network.node[1].core_layer 	interests[1] 	45829
scalar abilene_network.node[1].core_layer 	data[1] 	39568
scalar abilene_network.node[1].content_store 	p_hit[1] 	0.1044535119684
scalar abilene_network.node[1].content_store 	hits[1] 	4787
scalar abilene_network.node[1].content_store 	misses[1] 	41042
scalar abilene_network.node[1].content_store 	decision_yes[1] 	39568
scalar abilene_network.node[1].content_store 	decision_no[1] 	0
scalar abilene_network.node[1].content_store 	decision_ratio[1] 	1
scalar abilene_network.node[2].core_layer 	interests[2] 	57643
scalar abilene_network.node[2].core_layer 	data[2] 	52450
scalar abilene_network.node[2].content_store 	p_hit[2] 	0.068473188418368
scalar abilene_network.node[2].content_store 	hits[2] 	3947
scalar abilene_network.node[2].content_store 	misses[2] 	53696
scalar abilene_network.node[2].content_store 	decision_yes[2] 	52450
scalar abilene_network.node[2].content_store 	decision_no[2] 	0
scalar abilene_network.node[2].content_store 	decision_ratio[2] 	1
scalar abilene_network.node[3].core_layer 	interests[3] 	70711
scalar abilene_network.node[3].core_layer 	data[3] 	65395
scalar abilene_network.node[3].content_store 	p_hit[3] 	0.058689595678183
scalar abilene_network.node[3].content_store 	hits[3] 	4150
scalar abilene_network.node[3].content_store 	misses[3] 	66561
scalar abilene_network.node[3].content_store 	decision_yes[3] 	65395
scalar abilene_network.node[3].content_store 	decision_no[3] 	0
scalar abilene_network.node[3].content_store 	decision_ratio[3] 	1
scalar abilene_network.node[4].core_layer 	interests[4] 	83534
scalar abilene_network.node[4].core_layer 	data[4] 	78187
scalar abilene_network.node[4].content_store 	p_hit[4] 	0.049309263293988
scalar abilene_network.node[4].content_store 	hits[4] 	4119
scalar abilene_network.node[4].content_store 	misses[4] 	79415
scalar abilene_network.node[4].content_store 	decision_yes[4] 	78187
scalar abilene_network.node[4].content_store 	decision_no[4] 	0
scalar abilene_network.node[4].content_store 	decision_ratio[4] 	1
scalar abilene_network.node[5].core_layer 	interests[5] 	149830
scalar abilene_network.node[5].core_layer 	repo_load[5] 	141119
scalar abilene_network.node[5].core_layer 	data[5] 	0
scalar abilene_network.node[5].content_store 	p_hit[5] 	0.058139224454382
scalar abilene_network.node[5].content_store 	hits[5] 	8711
scalar abilene_network.node[5].content_store 	misses[5] 	141119
scalar abilene_network.node[5].content_store 	decision_yes[5] 	141119
scalar abilene_network.node[5].content_store 	decision_no[5] 	0
scalar abilene_network.node[5].content_store 	decision_ratio[5] 	1
scalar abilene_network.node[6].core_layer 	interests[6] 	58382
scalar abilene_network.node[6].core_layer 	data[6] 	53842
scalar abilene_network.node[6].content_store 	p_hit[6] 	0.073515809667363
scalar abilene_network.node[6].content_store 	hits[6] 	4292
scalar abilene_network.node[6].content_store 	misses[6] 	54090
scalar abilene_network.node[6].content_store 	decision_yes[6] 	53842
scalar abilene_network.node[6].content_store 	decision_no[6] 	0
scalar abilene_network.node[6].content_store 	decision_ratio[6] 	1
scalar abilene_network.node[7].core_layer 	interests[7] 	45205
scalar abilene_network.node[7].core_layer 	data[7] 	40369
scalar abilene_network.node[7].content_store 	p_hit[7] 	0.094193120230063
scalar abilene_network.node[7].content_store 	hits[7] 	4258
scalar abilene_network.node[7].content_store 	misses[7] 	40947
scalar abilene_network.node[7].content_store 	decision_yes[7] 	40369
scalar abilene_network.node[7].content_store 	decision_no[7] 	0
scalar abilene_network.node[7].content_store 	decision_ratio[7] 	1
scalar abilene_network.node[8].core_layer 	interests[8] 	32044
scalar abilene_network.node[8].core_layer 	data[8] 	27305
scalar abilene_network.node[8].content_store 	p_hit[8] 	0.12804269129946
scalar abilene_network.node[8].content_store 	hits[8] 	4103
scalar abilene_network.node[8].content_store 	misses[8] 	27941
scalar abilene_network.node[8].content_store 	decision_yes[8] 	27305
scalar abilene_network.node[8].content_store 	decision_no[8] 	0
scalar abilene_network.node[8].content_store 	decision_ratio[8] 	1
scalar abilene_network.node[9].core_layer 	interests[9] 	17945
scalar abilene_network.node[9].core_layer 	data[9] 	13892
scalar abilene_network.node[9].content_store 	p_hit[9] 	0.20061298411814
scalar abilene_network.node[9].content_store 	hits[9] 	3600
scalar abilene_network.node[9].content_store 	misses[9] 	14345
scalar abilene_network.node[9].content_store 	decision_yes[9] 	13892
scalar abilene_network.node[9].content_store 	decision_no[9] 	0
scalar abilene_network.node[9].content_store 	decision_ratio[9] 	1
scalar abilene_network.node[10].core_layer 	interests[10] 	17862
scalar abilene_network.node[10].core_layer 	data[10] 	13880
scalar abilene_network.node[10].content_store 	p_hit[10] 	0.19980965177472
scalar abilene_network.node[10].content_store 	hits[10] 	3569
scalar abilene_network.node[10].content_store 	misses[10] 	14293
scalar abilene_network.node[10].content_store 	decision_yes[10] 	13880
scalar abilene_network.node[10].content_store 	decision_no[10] 	0
scalar abilene_network.node[10].content_store 	decision_ratio[10] 	1
scalar abilene_network.client[0] 	hdistance[0] 	4.3116883116883
scalar abilene_network.client[0] 	downloads[0] 	17556
scalar abilene_network.client[0] 	avg_time[0] 	0.022636986295
scalar abilene_network.client[1] 	hdistance[1] 	3.8955809588807
scalar abilene_network.client[1] 	downloads[1] 	17583
scalar abilene_network.client[1] 	avg_time[1] 	0.01555458188
scalar abilene_network.client[2] 	hdistance[2] 	3.2049507735584
scalar abilene_network.client[2] 	downloads[2] 	17775
scalar abilene_network.client[2] 	avg_time[2] 	0.011293590681
scalar abilene_network.client[3] 	hdistance[3] 	2.4625208217657
scalar abilene_network.client[3] 	downloads[3] 	18010
scalar abilene_network.client[3] 	avg_time[3] 	0.007616404922
scalar abilene_network.client[4] 	hdistance[4] 	1.661507515226
scalar abilene_network.client[4] 	downloads[4] 	17897
scalar abilene_network.client[4] 	avg_time[4] 	0.006401645041
scalar abilene_network.client[5] 	hdistance[5] 	0.8650637604629
scalar abilene_network.client[5] 	downloads[5] 	17801
scalar abilene_network.client[5] 	avg_time[5] 	0
scalar abilene_network.client[6] 	hdistance[6] 	1.6270459859704
scalar abilene_network.client[6] 	downloads[6] 	17962
scalar abilene_network.client[6] 	avg_time[6] 	0.001849814309
scalar abilene_network.client[7] 	hdistance[7] 	2.3710560478636
scalar abilene_network.client[7] 	downloads[7] 	17717
scalar abilene_network.client[7] 	avg_time[7] 	0.006533017019
scalar abilene_network.client[8] 	hdistance[8] 	3.0412515392365
scalar abilene_network.client[8] 	downloads[8] 	17866
scalar abilene_network.client[8] 	avg_time[8] 	0.01214439008
scalar abilene_network.client[9] 	hdistance[9] 	3.6167962497142
scalar abilene_network.client[9] 	downloads[9] 	17492
scalar abilene_network.client[9] 	avg_time[9] 	0.022621049351
scalar abilene_network.client[10] 	hdistance[10] 	4.3384148088716
scalar abilene_network.client[10] 	downloads[10] 	17449
scalar abilene_network.client[10] 	avg_time[10] 	0.021969103458
