version 2
run General-0-20150615-16:01:41-29994
attr D lce
attr F spr
attr R lru
attr a 1
attr configname General
attr datetime 20150615-16:01:41
attr experiment General
attr inifile omnetpp.ini
attr iterationvars "$net=abilene, $rep=0, $a=1, $F=spr, $ttl=1000, $D=lce, $R=lru, $window=60, $variance=0.05, $mytime=1800"
attr iterationvars2 "$net=abilene, $rep=0, $a=1, $F=spr, $ttl=1000, $D=lce, $R=lru, $window=60, $variance=0.05, $mytime=1800, $repetition=0"
attr measurement "$net=abilene, $rep=0, $a=1, $F=spr, $ttl=1000, $D=lce, $R=lru, $window=60, $variance=0.05, $mytime=1800"
attr mytime 1800
attr net abilene
attr network networks.${net=abilene}_network
attr processid 29994
attr rep 0
attr repetition 0
attr replication #0
attr resultdir results
attr runnumber 0
attr seedset 0
attr ttl 1000
attr variance 0.05
attr window 60

scalar . 	a 	1
scalar . 	mytime 	1800
scalar . 	rep 	0
scalar . 	ttl 	1000
scalar . 	variance 	0.05
scalar . 	window 	60
scalar abilene_network.content_distribution 	repo-0 	5
scalar abilene_network.content_distribution 	client-0 	8
scalar abilene_network.content_distribution 	client-1 	9
scalar abilene_network.content_distribution 	client-2 	5
scalar abilene_network.content_distribution 	client-3 	0
scalar abilene_network.content_distribution 	client-4 	1
scalar abilene_network.content_distribution 	client-5 	7
scalar abilene_network.content_distribution 	client-6 	6
scalar abilene_network.content_distribution 	client-7 	2
scalar abilene_network.content_distribution 	client-8 	4
scalar abilene_network.content_distribution 	client-9 	10
scalar abilene_network.content_distribution 	client-10 	3
scalar abilene_network.content_distribution 	repo-0_card 	1000
scalar abilene_network.content_distribution 	repo-0_price 	0
scalar abilene_network.statistics 	stabilization_time 	60.2
scalar abilene_network.statistics 	p_hit 	0.082630385746069
scalar abilene_network.statistics 	interests 	542186.63636364
scalar abilene_network.statistics 	data 	362077
scalar abilene_network.statistics 	hdistance 	2.8502487363133
scalar abilene_network.statistics 	avg_time 	0.011674807216
scalar abilene_network.statistics 	downloads 	1950059
scalar abilene_network.statistics 	total_cost 	0
scalar abilene_network.statistics 	total_replicas 	1000
scalar abilene_network.statistics 	inner_hit 	0.27757057606975
scalar abilene_network.node[0].core_layer 	interests[0] 	180271
scalar abilene_network.node[0].core_layer 	data[0] 	139570
scalar abilene_network.node[0].core_layer 	repo_int[0] 	1408780
scalar abilene_network.node[0].content_store 	p_hit[0] 	0.20238418824991
scalar abilene_network.node[0].content_store 	hits[0] 	36484
scalar abilene_network.node[0].content_store 	misses[0] 	143787
scalar abilene_network.node[0].content_store 	decision_yes[0] 	139570
scalar abilene_network.node[0].content_store 	decision_no[0] 	0
scalar abilene_network.node[0].content_store 	decision_ratio[0] 	1
scalar abilene_network.node[1].core_layer 	interests[1] 	458999
scalar abilene_network.node[1].core_layer 	data[1] 	396302
scalar abilene_network.node[1].content_store 	p_hit[1] 	0.10444031468478
scalar abilene_network.node[1].content_store 	hits[1] 	47938
scalar abilene_network.node[1].content_store 	misses[1] 	411061
scalar abilene_network.node[1].content_store 	decision_yes[1] 	396302
scalar abilene_network.node[1].content_store 	decision_no[1] 	0
scalar abilene_network.node[1].content_store 	decision_ratio[1] 	1
scalar abilene_network.node[2].core_layer 	interests[2] 	576654
scalar abilene_network.node[2].core_layer 	data[2] 	523707
scalar abilene_network.node[2].content_store 	p_hit[2] 	0.070009052221956
scalar abilene_network.node[2].content_store 	hits[2] 	40371
scalar abilene_network.node[2].content_store 	misses[2] 	536283
scalar abilene_network.node[2].content_store 	decision_yes[2] 	523707
scalar abilene_network.node[2].content_store 	decision_no[2] 	0
scalar abilene_network.node[2].content_store 	decision_ratio[2] 	1
scalar abilene_network.node[3].core_layer 	interests[3] 	704069
scalar abilene_network.node[3].core_layer 	data[3] 	652091
scalar abilene_network.node[3].content_store 	p_hit[3] 	0.057839501526129
scalar abilene_network.node[3].content_store 	hits[3] 	40723
scalar abilene_network.node[3].content_store 	misses[3] 	663346
scalar abilene_network.node[3].content_store 	decision_yes[3] 	652091
scalar abilene_network.node[3].content_store 	decision_no[3] 	0
scalar abilene_network.node[3].content_store 	decision_ratio[3] 	1
scalar abilene_network.node[4].core_layer 	interests[4] 	832830
scalar abilene_network.node[4].core_layer 	data[4] 	779200
scalar abilene_network.node[4].content_store 	p_hit[4] 	0.049280165219793
scalar abilene_network.node[4].content_store 	hits[4] 	41042
scalar abilene_network.node[4].content_store 	misses[4] 	791788
scalar abilene_network.node[4].content_store 	decision_yes[4] 	779200
scalar abilene_network.node[4].content_store 	decision_no[4] 	0
scalar abilene_network.node[4].content_store 	decision_ratio[4] 	1
scalar abilene_network.node[5].core_layer 	interests[5] 	1495969
scalar abilene_network.node[5].core_layer 	repo_load[5] 	1408780
scalar abilene_network.node[5].core_layer 	data[5] 	0
scalar abilene_network.node[5].content_store 	p_hit[5] 	0.058282624840488
scalar abilene_network.node[5].content_store 	hits[5] 	87189
scalar abilene_network.node[5].content_store 	misses[5] 	1408780
scalar abilene_network.node[5].content_store 	decision_yes[5] 	1408780
scalar abilene_network.node[5].content_store 	decision_no[5] 	0
scalar abilene_network.node[5].content_store 	decision_ratio[5] 	1
scalar abilene_network.node[6].core_layer 	interests[6] 	583759
scalar abilene_network.node[6].core_layer 	data[6] 	537383
scalar abilene_network.node[6].content_store 	p_hit[6] 	0.075106336690312
scalar abilene_network.node[6].content_store 	hits[6] 	43844
scalar abilene_network.node[6].content_store 	misses[6] 	539915
scalar abilene_network.node[6].content_store 	decision_yes[6] 	537383
scalar abilene_network.node[6].content_store 	decision_no[6] 	0
scalar abilene_network.node[6].content_store 	decision_ratio[6] 	1
scalar abilene_network.node[7].core_layer 	interests[7] 	451819
scalar abilene_network.node[7].core_layer 	data[7] 	403551
scalar abilene_network.node[7].content_store 	p_hit[7] 	0.093154559679872
scalar abilene_network.node[7].content_store 	hits[7] 	42089
scalar abilene_network.node[7].content_store 	misses[7] 	409730
scalar abilene_network.node[7].content_store 	decision_yes[7] 	403551
scalar abilene_network.node[7].content_store 	decision_no[7] 	0
scalar abilene_network.node[7].content_store 	decision_ratio[7] 	1
scalar abilene_network.node[8].core_layer 	interests[8] 	319478
scalar abilene_network.node[8].core_layer 	data[8] 	272281
scalar abilene_network.node[8].content_store 	p_hit[8] 	0.12672860103043
scalar abilene_network.node[8].content_store 	hits[8] 	40487
scalar abilene_network.node[8].content_store 	misses[8] 	278991
scalar abilene_network.node[8].content_store 	decision_yes[8] 	272281
scalar abilene_network.node[8].content_store 	decision_no[8] 	0
scalar abilene_network.node[8].content_store 	decision_ratio[8] 	1
scalar abilene_network.node[9].core_layer 	interests[9] 	180394
scalar abilene_network.node[9].core_layer 	data[9] 	139467
scalar abilene_network.node[9].content_store 	p_hit[9] 	0.20108207590053
scalar abilene_network.node[9].content_store 	hits[9] 	36274
scalar abilene_network.node[9].content_store 	misses[9] 	144120
scalar abilene_network.node[9].content_store 	decision_yes[9] 	139467
scalar abilene_network.node[9].content_store 	decision_no[9] 	0
scalar abilene_network.node[9].content_store 	decision_ratio[9] 	1
scalar abilene_network.node[10].core_layer 	interests[10] 	179811
scalar abilene_network.node[10].core_layer 	data[10] 	139295
scalar abilene_network.node[10].content_store 	p_hit[10] 	0.20227349828431
scalar abilene_network.node[10].content_store 	hits[10] 	36371
scalar abilene_network.node[10].content_store 	misses[10] 	143440
scalar abilene_network.node[10].content_store 	decision_yes[10] 	139295
scalar abilene_network.node[10].content_store 	decision_no[10] 	0
scalar abilene_network.node[10].content_store 	decision_ratio[10] 	1
scalar abilene_network.client[0] 	hdistance[0] 	4.3057527803969
scalar abilene_network.client[0] 	downloads[0] 	176054
scalar abilene_network.client[0] 	avg_time[0] 	0.02258593604
scalar abilene_network.client[1] 	hdistance[1] 	3.8918184968668
scalar abilene_network.client[1] 	downloads[1] 	176019
scalar abilene_network.client[1] 	avg_time[1] 	0.015531452986
scalar abilene_network.client[2] 	hdistance[2] 	3.2060618377451
scalar abilene_network.client[2] 	downloads[2] 	177141
scalar abilene_network.client[2] 	avg_time[2] 	0.011266662141
scalar abilene_network.client[3] 	hdistance[3] 	2.4584949137302
scalar abilene_network.client[3] 	downloads[3] 	177930
scalar abilene_network.client[3] 	avg_time[3] 	0.00761335722
scalar abilene_network.client[4] 	hdistance[4] 	1.6623933061902
scalar abilene_network.client[4] 	downloads[4] 	178314
scalar abilene_network.client[4] 	avg_time[4] 	0.006408644522
scalar abilene_network.client[5] 	hdistance[5] 	0.86399085765253
scalar abilene_network.client[5] 	downloads[5] 	179385
scalar abilene_network.client[5] 	avg_time[5] 	0
scalar abilene_network.client[6] 	hdistance[6] 	1.6201662611291
scalar abilene_network.client[6] 	downloads[6] 	179597
scalar abilene_network.client[6] 	avg_time[6] 	0.001840803392
scalar abilene_network.client[7] 	hdistance[7] 	2.3716827621956
scalar abilene_network.client[7] 	downloads[7] 	177482
scalar abilene_network.client[7] 	avg_time[7] 	0.006526592966
scalar abilene_network.client[8] 	hdistance[8] 	3.0535675889776
scalar abilene_network.client[8] 	downloads[8] 	176730
scalar abilene_network.client[8] 	avg_time[8] 	0.012164067272
scalar abilene_network.client[9] 	hdistance[9] 	3.6106372445815
scalar abilene_network.client[9] 	downloads[9] 	175741
scalar abilene_network.client[9] 	avg_time[9] 	0.022613123119
scalar abilene_network.client[10] 	hdistance[10] 	4.3081700499812
scalar abilene_network.client[10] 	downloads[10] 	175666
scalar abilene_network.client[10] 	avg_time[10] 	0.021872239722
