version 2
run General-7-20150709-13:21:33-27642
attr D lce
attr F spr
attr R partitioned
attr a 1
attr brates 0.3_3.5
attr configname General
attr datetime 20150709-13:21:33
attr experiment General
attr inifile omnetpp.ini
attr iterationvars "$net=video_simple_scenario, $rep=0, $lambda=100, $a=1, $brates=0.3_3.5, $F=spr, $ttl=1000, $D=lce, $R=partitioned, $window=60, $variance=0.05, $mytime=180000"
attr iterationvars2 "$net=video_simple_scenario, $rep=0, $lambda=100, $a=1, $brates=0.3_3.5, $F=spr, $ttl=1000, $D=lce, $R=partitioned, $window=60, $variance=0.05, $mytime=180000, $repetition=0"
attr lambda 100
attr measurement "$net=video_simple_scenario, $rep=0, $lambda=100, $a=1, $brates=0.3_3.5, $F=spr, $ttl=1000, $D=lce, $R=partitioned, $window=60, $variance=0.05, $mytime=180000"
attr mytime 180000
attr net video_simple_scenario
attr network networks.${net=video_simple_scenario}_network
attr processid 27642
attr rep 0
attr repetition 0
attr replication #0
attr resultdir results
attr runnumber 7
attr seedset 0
attr ttl 1000
attr variance 0.05
attr window 60

scalar . 	a 	1
scalar . 	lambda 	100
scalar . 	mytime 	180000
scalar . 	rep 	0
scalar . 	ttl 	1000
scalar . 	variance 	0.05
scalar . 	window 	60
scalar video_simple_scenario_network.content_distribution 	repo-0 	0
scalar video_simple_scenario_network.content_distribution 	client-0 	1
scalar video_simple_scenario_network.content_distribution 	repo-0_card 	1000
scalar video_simple_scenario_network.content_distribution 	repo-0_price 	0
scalar video_simple_scenario_network.statistics 	stabilization_time 	61.1
scalar video_simple_scenario_network.statistics 	p_hit 	0.18825696030881
scalar video_simple_scenario_network.statistics 	interests 	18340583.5
scalar video_simple_scenario_network.statistics 	data 	7443920.5
scalar video_simple_scenario_network.statistics 	hdistance 	1.232693111357
scalar video_simple_scenario_network.statistics 	avg_time 	0
scalar video_simple_scenario_network.statistics 	downloads 	17999278
scalar video_simple_scenario_network.statistics 	total_cost 	0
scalar video_simple_scenario_network.statistics 	total_replicas 	1000
scalar video_simple_scenario_network.statistics 	"representations_downloaded 0.827135:0.172865:" 	0
scalar video_simple_scenario_network.statistics 	inner_hit 	0.17286454490008
scalar video_simple_scenario_network.statistics 	interests_sent 	17999278
scalar video_simple_scenario_network.node[0].core_layer 	interests[0] 	14887841
scalar video_simple_scenario_network.node[0].core_layer 	repo_load[0] 	14887841
scalar video_simple_scenario_network.node[0].core_layer 	data[0] 	0
scalar video_simple_scenario_network.node[0].core_layer 	slots_sent[face$o[1]->client[0]] 	0
scalar video_simple_scenario_network.node[0].core_layer 	slots_sent[face$o[2]->node[1]] 	5537033316
scalar video_simple_scenario_network.node[0].content_store 	p_hit[0] 	0
scalar video_simple_scenario_network.node[0].content_store 	hits[0] 	0
scalar video_simple_scenario_network.node[0].content_store 	misses[0] 	14887841
scalar video_simple_scenario_network.node[0].content_store 	decision_yes[0] 	0
scalar video_simple_scenario_network.node[0].content_store 	decision_no[0] 	14887841
scalar video_simple_scenario_network.node[0].content_store 	decision_ratio[0] 	0
scalar video_simple_scenario_network.node[0].content_store 	"representation_breakdown[0] 0:0:" 	0
scalar video_simple_scenario_network.node[1].core_layer 	interests[1] 	21793326
scalar video_simple_scenario_network.node[1].core_layer 	data[1] 	14887841
scalar video_simple_scenario_network.node[1].core_layer 	slots_sent[face$o[1]->client[1]] 	5119831079
scalar video_simple_scenario_network.node[1].core_layer 	slots_sent[face$o[2]->node[0]] 	0
scalar video_simple_scenario_network.node[1].content_store 	p_hit[1] 	0.31686237337064
scalar video_simple_scenario_network.node[1].content_store 	hits[1] 	6905485
scalar video_simple_scenario_network.node[1].content_store 	misses[1] 	14887841
scalar video_simple_scenario_network.node[1].content_store 	decision_yes[1] 	14887841
scalar video_simple_scenario_network.node[1].content_store 	decision_no[1] 	0
scalar video_simple_scenario_network.node[1].content_store 	decision_ratio[1] 	1
scalar video_simple_scenario_network.node[1].content_store 	"representation_breakdown[1] 56:5:" 	0
scalar video_simple_scenario_network.node[1].proactive_component 	hdistance[0].proactive_component 	2
scalar video_simple_scenario_network.node[1].proactive_component 	downloads[0].proactive_component 	3795345
scalar video_simple_scenario_network.node[1].proactive_component 	avg_time[0].proactive_component 	0
scalar video_simple_scenario_network.node[1].proactive_component 	interests_sent[0].proactive_component 	3795345
scalar video_simple_scenario_network.client[1] 	hdistance[1].real 	1.232693111357
scalar video_simple_scenario_network.client[1] 	downloads[1].real 	17999278
scalar video_simple_scenario_network.client[1] 	avg_time[1].real 	0
scalar video_simple_scenario_network.client[1] 	interests_sent[1].real 	17999278
