version 2
run General-7-20140627-14:26:25-21897
attr D costprobprodcorr0.01
attr F nrr
attr R lru
attr a 1
attr configname General
attr csize 1e3
attr ctlg 1e5
attr datetime 20140627-14:26:25
attr experiment General
attr inifile omnetpp.ini
attr iterationvars "$net=abilene_cost, $rep=1, $priceratiovalue=10, $weights=0.333_0.333_0.334, $lambda=100, $a=1, $ctlg=1e5, $F=nrr, $ttl=1000, $D=costprobprodcorr0.01, $xi=1, $R=lru, $csize=1e3, $pricebits=0, $window=600, $variance=0.005, $mytime=1800"
attr iterationvars2 "$net=abilene_cost, $rep=1, $priceratiovalue=10, $weights=0.333_0.333_0.334, $lambda=100, $a=1, $ctlg=1e5, $F=nrr, $ttl=1000, $D=costprobprodcorr0.01, $xi=1, $R=lru, $csize=1e3, $pricebits=0, $window=600, $variance=0.005, $mytime=1800, $repetition=0"
attr lambda 100
attr measurement "$net=abilene_cost, $rep=1, $priceratiovalue=10, $weights=0.333_0.333_0.334, $lambda=100, $a=1, $ctlg=1e5, $F=nrr, $ttl=1000, $D=costprobprodcorr0.01, $xi=1, $R=lru, $csize=1e3, $pricebits=0, $window=600, $variance=0.005, $mytime=1800"
attr mytime 1800
attr net abilene_cost
attr network "networks.${net=geant_cost, abilene_cost}_network"
attr pricebits 0
attr priceratiovalue 10
attr processid 21897
attr rep 1
attr repetition 0
attr replication #0
attr resultdir results
attr runnumber 7
attr seedset 1
attr ttl 1000
attr variance 0.005
attr weights 0.333_0.333_0.334
attr window 600
attr xi 1

scalar . 	a 	1
scalar . 	csize 	1e3
scalar . 	ctlg 	1e5
scalar . 	lambda 	100
scalar . 	mytime 	1800
scalar . 	pricebits 	0
scalar . 	priceratiovalue 	10
scalar . 	rep 	1
scalar . 	ttl 	1000
scalar . 	variance 	0.005
scalar . 	window 	600
scalar . 	xi 	1
scalar abilene_cost_network.content_distribution 	repo-0 	11
scalar abilene_cost_network.content_distribution 	repo-1 	12
scalar abilene_cost_network.content_distribution 	repo-2 	13
scalar abilene_cost_network.content_distribution 	client-0 	5
scalar abilene_cost_network.content_distribution 	client-1 	0
scalar abilene_cost_network.content_distribution 	client-2 	9
scalar abilene_cost_network.content_distribution 	repo-0_card 	33396
scalar abilene_cost_network.content_distribution 	repo-1_card 	33039
scalar abilene_cost_network.content_distribution 	repo-2_card 	33565
scalar abilene_cost_network.statistics 	repo_popularity[0] 	0.28686251265602
scalar abilene_cost_network.statistics 	repo_popularity[1] 	0.2886063426465
scalar abilene_cost_network.statistics 	repo_popularity[2] 	0.42453114469748
scalar abilene_cost_network.statistics 	stabilization_time 	3545.8
scalar abilene_cost_network.node[1].face$o[4].channel 	price[1] 	0
scalar abilene_cost_network.node[1].face$o[4].channel 	represented_price[1] 	0
scalar abilene_cost_network.node[7].face$o[4].channel 	price[7] 	0
scalar abilene_cost_network.node[7].face$o[4].channel 	represented_price[7] 	0
scalar abilene_cost_network.node[10].face$o[4].channel 	price[10] 	0
scalar abilene_cost_network.node[10].face$o[4].channel 	represented_price[10] 	0
scalar abilene_cost_network.node[11].face$o[1].channel 	price[11] 	0
scalar abilene_cost_network.node[11].face$o[1].channel 	represented_price[11] 	0
scalar abilene_cost_network.node[12].face$o[1].channel 	price[12] 	1
scalar abilene_cost_network.node[12].face$o[1].channel 	represented_price[12] 	1
scalar abilene_cost_network.node[13].face$o[1].channel 	price[13] 	10
scalar abilene_cost_network.node[13].face$o[1].channel 	represented_price[13] 	10
scalar abilene_cost_network.statistics 	p_hit 	0.10945759446491
scalar abilene_cost_network.statistics 	interests 	151490.5
scalar abilene_cost_network.statistics 	data 	112843.78571429
scalar abilene_cost_network.statistics 	hdistance 	3.5358395218096
scalar abilene_cost_network.statistics 	avg_time 	0.01573193474
scalar abilene_cost_network.statistics 	downloads 	531549
scalar abilene_cost_network.statistics 	total_cost 	787690
scalar abilene_cost_network.statistics 	total_replicas 	100000
scalar abilene_cost_network.statistics 	inner_hit 	0.4383170695458
scalar abilene_cost_network.statistics 	interests_sent 	541062
scalar abilene_cost_network.node[0].core_layer 	interests[0] 	195670
scalar abilene_cost_network.node[0].core_layer 	data[0] 	168018
scalar abilene_cost_network.node[0].core_layer 	repo_int[0] 	298562
scalar abilene_cost_network.node[0].content_store 	p_hit[0] 	0.12486840087903
scalar abilene_cost_network.node[0].content_store 	hits[0] 	24433
scalar abilene_cost_network.node[0].content_store 	misses[0] 	171237
scalar abilene_cost_network.node[0].content_store 	decision_yes[0] 	767
scalar abilene_cost_network.node[0].content_store 	decision_no[0] 	167251
scalar abilene_cost_network.node[0].content_store 	decision_ratio[0] 	0.0045649870847171
scalar abilene_cost_network.node[0].content_store 	correction_factor[0] 	0.0027225701061802
scalar abilene_cost_network.node[0].content_store 	xi[0] 	1
scalar abilene_cost_network.node[1].core_layer 	interests[1] 	234987
scalar abilene_cost_network.node[1].core_layer 	data[1] 	206835
scalar abilene_cost_network.node[1].content_store 	p_hit[1] 	0.1198151387098
scalar abilene_cost_network.node[1].content_store 	hits[1] 	28155
scalar abilene_cost_network.node[1].content_store 	misses[1] 	206832
scalar abilene_cost_network.node[1].content_store 	decision_yes[1] 	1996
scalar abilene_cost_network.node[1].content_store 	decision_no[1] 	204839
scalar abilene_cost_network.node[1].content_store 	decision_ratio[1] 	0.0096502042691034
scalar abilene_cost_network.node[1].content_store 	correction_factor[1] 	0.0027225701061802
scalar abilene_cost_network.node[1].content_store 	xi[1] 	1
scalar abilene_cost_network.node[2].core_layer 	interests[2] 	196741
scalar abilene_cost_network.node[2].core_layer 	data[2] 	180004
scalar abilene_cost_network.node[2].content_store 	p_hit[2] 	0.080837242872609
scalar abilene_cost_network.node[2].content_store 	hits[2] 	15904
scalar abilene_cost_network.node[2].content_store 	misses[2] 	180837
scalar abilene_cost_network.node[2].content_store 	decision_yes[2] 	743
scalar abilene_cost_network.node[2].content_store 	decision_no[2] 	179261
scalar abilene_cost_network.node[2].content_store 	decision_ratio[2] 	0.0041276860514211
scalar abilene_cost_network.node[2].content_store 	correction_factor[2] 	0.0027225701061802
scalar abilene_cost_network.node[2].content_store 	xi[2] 	1
scalar abilene_cost_network.node[3].core_layer 	interests[3] 	199350
scalar abilene_cost_network.node[3].core_layer 	data[3] 	146125
scalar abilene_cost_network.node[3].content_store 	p_hit[3] 	0.26699774266366
scalar abilene_cost_network.node[3].content_store 	hits[3] 	53226
scalar abilene_cost_network.node[3].content_store 	misses[3] 	146124
scalar abilene_cost_network.node[3].content_store 	decision_yes[3] 	697
scalar abilene_cost_network.node[3].content_store 	decision_no[3] 	145428
scalar abilene_cost_network.node[3].content_store 	decision_ratio[3] 	0.0047698887938409
scalar abilene_cost_network.node[3].content_store 	correction_factor[3] 	0.0027225701061802
scalar abilene_cost_network.node[3].content_store 	xi[3] 	1
scalar abilene_cost_network.node[4].core_layer 	interests[4] 	127309
scalar abilene_cost_network.node[4].core_layer 	data[4] 	124588
scalar abilene_cost_network.node[4].content_store 	p_hit[4] 	0.021381049258104
scalar abilene_cost_network.node[4].content_store 	hits[4] 	2722
scalar abilene_cost_network.node[4].content_store 	misses[4] 	124587
scalar abilene_cost_network.node[4].content_store 	decision_yes[4] 	628
scalar abilene_cost_network.node[4].content_store 	decision_no[4] 	123960
scalar abilene_cost_network.node[4].content_store 	decision_ratio[4] 	0.0050406138632934
scalar abilene_cost_network.node[4].content_store 	correction_factor[4] 	0.0027225701061802
scalar abilene_cost_network.node[4].content_store 	xi[4] 	1
scalar abilene_cost_network.node[5].core_layer 	interests[5] 	183780
scalar abilene_cost_network.node[5].core_layer 	data[5] 	173551
scalar abilene_cost_network.node[5].content_store 	p_hit[5] 	0.040646425073457
scalar abilene_cost_network.node[5].content_store 	hits[5] 	7470
scalar abilene_cost_network.node[5].content_store 	misses[5] 	176310
scalar abilene_cost_network.node[5].content_store 	decision_yes[5] 	725
scalar abilene_cost_network.node[5].content_store 	decision_no[5] 	172826
scalar abilene_cost_network.node[5].content_store 	decision_ratio[5] 	0.0041774463990412
scalar abilene_cost_network.node[5].content_store 	correction_factor[5] 	0.0027225701061802
scalar abilene_cost_network.node[5].content_store 	xi[5] 	1
scalar abilene_cost_network.node[6].core_layer 	interests[6] 	57821
scalar abilene_cost_network.node[6].core_layer 	data[6] 	47727
scalar abilene_cost_network.node[6].content_store 	p_hit[6] 	0.17457325193269
scalar abilene_cost_network.node[6].content_store 	hits[6] 	10094
scalar abilene_cost_network.node[6].content_store 	misses[6] 	47727
scalar abilene_cost_network.node[6].content_store 	decision_yes[6] 	54
scalar abilene_cost_network.node[6].content_store 	decision_no[6] 	47673
scalar abilene_cost_network.node[6].content_store 	decision_ratio[6] 	0.0011314350367716
scalar abilene_cost_network.node[6].content_store 	correction_factor[6] 	0.0027225701061802
scalar abilene_cost_network.node[6].content_store 	xi[6] 	1
scalar abilene_cost_network.node[7].core_layer 	interests[7] 	126877
scalar abilene_cost_network.node[7].core_layer 	data[7] 	89386
scalar abilene_cost_network.node[7].content_store 	p_hit[7] 	0.2954357369736
scalar abilene_cost_network.node[7].content_store 	hits[7] 	37484
scalar abilene_cost_network.node[7].content_store 	misses[7] 	89393
scalar abilene_cost_network.node[7].content_store 	decision_yes[7] 	180
scalar abilene_cost_network.node[7].content_store 	decision_no[7] 	89206
scalar abilene_cost_network.node[7].content_store 	decision_ratio[7] 	0.0020137381692883
scalar abilene_cost_network.node[7].content_store 	correction_factor[7] 	0.0027225701061802
scalar abilene_cost_network.node[7].content_store 	xi[7] 	1
scalar abilene_cost_network.node[8].core_layer 	interests[8] 	82873
scalar abilene_cost_network.node[8].core_layer 	data[8] 	69984
scalar abilene_cost_network.node[8].content_store 	p_hit[8] 	0.15553919853269
scalar abilene_cost_network.node[8].content_store 	hits[8] 	12890
scalar abilene_cost_network.node[8].content_store 	misses[8] 	69983
scalar abilene_cost_network.node[8].content_store 	decision_yes[8] 	63
scalar abilene_cost_network.node[8].content_store 	decision_no[8] 	69921
scalar abilene_cost_network.node[8].content_store 	decision_ratio[8] 	0.00090020576131687
scalar abilene_cost_network.node[8].content_store 	correction_factor[8] 	0.0027225701061802
scalar abilene_cost_network.node[8].content_store 	xi[8] 	1
scalar abilene_cost_network.node[9].core_layer 	interests[9] 	188620
scalar abilene_cost_network.node[9].core_layer 	data[9] 	173456
scalar abilene_cost_network.node[9].content_store 	p_hit[9] 	0.061653059060545
scalar abilene_cost_network.node[9].content_store 	hits[9] 	11629
scalar abilene_cost_network.node[9].content_store 	misses[9] 	176991
scalar abilene_cost_network.node[9].content_store 	decision_yes[9] 	701
scalar abilene_cost_network.node[9].content_store 	decision_no[9] 	172755
scalar abilene_cost_network.node[9].content_store 	decision_ratio[9] 	0.0040413707222581
scalar abilene_cost_network.node[9].content_store 	correction_factor[9] 	0.0027225701061802
scalar abilene_cost_network.node[9].content_store 	xi[9] 	1
scalar abilene_cost_network.node[10].core_layer 	interests[10] 	228277
scalar abilene_cost_network.node[10].core_layer 	data[10] 	200139
scalar abilene_cost_network.node[10].content_store 	p_hit[10] 	0.12326252754329
scalar abilene_cost_network.node[10].content_store 	hits[10] 	28138
scalar abilene_cost_network.node[10].content_store 	misses[10] 	200139
scalar abilene_cost_network.node[10].content_store 	decision_yes[10] 	641
scalar abilene_cost_network.node[10].content_store 	decision_no[10] 	199498
scalar abilene_cost_network.node[10].content_store 	decision_ratio[10] 	0.0032027740720199
scalar abilene_cost_network.node[10].content_store 	correction_factor[10] 	0.0027225701061802
scalar abilene_cost_network.node[10].content_store 	xi[10] 	1
scalar abilene_cost_network.node[11].core_layer 	interests[11] 	154669
scalar abilene_cost_network.node[11].core_layer 	repo_load[11] 	154669
scalar abilene_cost_network.node[11].core_layer 	data[11] 	0
scalar abilene_cost_network.node[11].content_store 	p_hit[11] 	0
scalar abilene_cost_network.node[11].content_store 	hits[11] 	0
scalar abilene_cost_network.node[11].content_store 	misses[11] 	154669
scalar abilene_cost_network.node[11].content_store 	decision_yes[11] 	0
scalar abilene_cost_network.node[11].content_store 	decision_no[11] 	154669
scalar abilene_cost_network.node[11].content_store 	decision_ratio[11] 	0
scalar abilene_cost_network.node[12].core_layer 	interests[12] 	72360
scalar abilene_cost_network.node[12].core_layer 	repo_load[12] 	72360
scalar abilene_cost_network.node[12].core_layer 	data[12] 	0
scalar abilene_cost_network.node[12].content_store 	p_hit[12] 	0
scalar abilene_cost_network.node[12].content_store 	hits[12] 	0
scalar abilene_cost_network.node[12].content_store 	misses[12] 	72360
scalar abilene_cost_network.node[12].content_store 	decision_yes[12] 	0
scalar abilene_cost_network.node[12].content_store 	decision_no[12] 	72360
scalar abilene_cost_network.node[12].content_store 	decision_ratio[12] 	0
scalar abilene_cost_network.node[13].core_layer 	interests[13] 	71533
scalar abilene_cost_network.node[13].core_layer 	repo_load[13] 	71533
scalar abilene_cost_network.node[13].core_layer 	data[13] 	0
scalar abilene_cost_network.node[13].content_store 	p_hit[13] 	0
scalar abilene_cost_network.node[13].content_store 	hits[13] 	0
scalar abilene_cost_network.node[13].content_store 	misses[13] 	71533
scalar abilene_cost_network.node[13].content_store 	decision_yes[13] 	0
scalar abilene_cost_network.node[13].content_store 	decision_no[13] 	71533
scalar abilene_cost_network.node[13].content_store 	decision_ratio[13] 	0
scalar abilene_cost_network.client[0] 	hdistance[0] 	3.1060788197913
scalar abilene_cost_network.client[0] 	downloads[0] 	177189
scalar abilene_cost_network.client[0] 	avg_time[0] 	0.014459669724
scalar abilene_cost_network.client[0] 	interests_sent[0] 	180408
scalar abilene_cost_network.client[5] 	hdistance[5] 	4.6431448082647
scalar abilene_cost_network.client[5] 	downloads[5] 	177041
scalar abilene_cost_network.client[5] 	avg_time[5] 	0.019268740752
scalar abilene_cost_network.client[5] 	interests_sent[5] 	179800
scalar abilene_cost_network.client[9] 	hdistance[9] 	2.8582949373727
scalar abilene_cost_network.client[9] 	downloads[9] 	177319
scalar abilene_cost_network.client[9] 	avg_time[9] 	0.013467393745
scalar abilene_cost_network.client[9] 	interests_sent[9] 	180854
