version 2
run General-12-20141007-11:21:21-15337
attr D costaware0.05
attr F nrr
attr R lru
attr a 1
attr configname General
attr csize 1e3
attr ctlg 1e5
attr datetime 20141007-11:21:21
attr experiment General
attr inifile omnetpp.ini
attr iterationvars "$net=abilene_cost, $rep=2, $priceratiovalue=10, $weights=0.333_0.333_0.334, $lambda=100, $a=1, $ctlg=1e5, $F=nrr, $ttl=10, $D=costaware0.05, $xi=1, $R=lru, $csize=1e3, $pricebits=0, $window=60, $variance=0.05, $mytime=1800"
attr iterationvars2 "$net=abilene_cost, $rep=2, $priceratiovalue=10, $weights=0.333_0.333_0.334, $lambda=100, $a=1, $ctlg=1e5, $F=nrr, $ttl=10, $D=costaware0.05, $xi=1, $R=lru, $csize=1e3, $pricebits=0, $window=60, $variance=0.05, $mytime=1800, $repetition=0"
attr lambda 100
attr measurement "$net=abilene_cost, $rep=2, $priceratiovalue=10, $weights=0.333_0.333_0.334, $lambda=100, $a=1, $ctlg=1e5, $F=nrr, $ttl=10, $D=costaware0.05, $xi=1, $R=lru, $csize=1e3, $pricebits=0, $window=60, $variance=0.05, $mytime=1800"
attr mytime 1800
attr net abilene_cost
attr network networks.${net=abilene_cost,geant_cost}_network
attr pricebits 0
attr priceratiovalue 10
attr processid 15337
attr rep 2
attr repetition 0
attr replication #0
attr resultdir results
attr runnumber 12
attr seedset 2
attr ttl 10
attr variance 0.05
attr weights 0.333_0.333_0.334
attr window 60
attr xi 1

scalar . 	a 	1
scalar . 	csize 	1e3
scalar . 	ctlg 	1e5
scalar . 	lambda 	100
scalar . 	mytime 	1800
scalar . 	pricebits 	0
scalar . 	priceratiovalue 	10
scalar . 	rep 	2
scalar . 	ttl 	10
scalar . 	variance 	0.05
scalar . 	window 	60
scalar . 	xi 	1
scalar abilene_cost_network.content_distribution 	repo-0 	4
scalar abilene_cost_network.content_distribution 	repo-1 	9
scalar abilene_cost_network.content_distribution 	repo-2 	6
scalar abilene_cost_network.content_distribution 	client-0 	3
scalar abilene_cost_network.content_distribution 	client-1 	7
scalar abilene_cost_network.content_distribution 	client-2 	9
scalar abilene_cost_network.content_distribution 	repo-0_card 	33329
scalar abilene_cost_network.content_distribution 	repo-0_price 	1
scalar abilene_cost_network.content_distribution 	repo-1_card 	33052
scalar abilene_cost_network.content_distribution 	repo-1_price 	10
scalar abilene_cost_network.content_distribution 	repo-2_card 	33619
scalar abilene_cost_network.content_distribution 	repo-2_price 	0
scalar abilene_cost_network.statistics 	repo_popularity[0] 	0.33984204835506
scalar abilene_cost_network.statistics 	repo_popularity[1] 	0.39407385110283
scalar abilene_cost_network.statistics 	repo_popularity[2] 	0.26608410054213
scalar abilene_cost_network.statistics 	stabilization_time 	36060
scalar abilene_cost_network.statistics 	p_hit 	0.15060288556598
scalar abilene_cost_network.statistics 	interests 	127726.63636364
scalar abilene_cost_network.statistics 	data 	78643.727272727
scalar abilene_cost_network.statistics 	hdistance 	2.216955394718
scalar abilene_cost_network.statistics 	avg_time 	0.011316090604
scalar abilene_cost_network.statistics 	downloads 	537402
scalar abilene_cost_network.statistics 	total_cost 	1036198
scalar abilene_cost_network.statistics 	total_replicas 	100000
scalar abilene_cost_network.statistics 	inner_hit 	0.39449611277963
scalar abilene_cost_network.node[0].core_layer 	interests[0] 	0
scalar abilene_cost_network.node[0].core_layer 	data[0] 	0
scalar abilene_cost_network.node[0].core_layer 	repo_int[0] 	325399
scalar abilene_cost_network.node[0].content_store 	p_hit[0] 	-nan
scalar abilene_cost_network.node[0].content_store 	hits[0] 	0
scalar abilene_cost_network.node[0].content_store 	misses[0] 	0
scalar abilene_cost_network.node[0].content_store 	decision_yes[0] 	0
scalar abilene_cost_network.node[0].content_store 	decision_no[0] 	0
scalar abilene_cost_network.node[0].content_store 	decision_ratio[0] 	0
scalar abilene_cost_network.node[0].content_store 	correction_factor[0] 	0.013612850530901
scalar abilene_cost_network.node[0].content_store 	kappa[0] 	1
scalar abilene_cost_network.node[1].core_layer 	interests[1] 	0
scalar abilene_cost_network.node[1].core_layer 	data[1] 	0
scalar abilene_cost_network.node[1].content_store 	p_hit[1] 	-nan
scalar abilene_cost_network.node[1].content_store 	hits[1] 	0
scalar abilene_cost_network.node[1].content_store 	misses[1] 	0
scalar abilene_cost_network.node[1].content_store 	decision_yes[1] 	0
scalar abilene_cost_network.node[1].content_store 	decision_no[1] 	0
scalar abilene_cost_network.node[1].content_store 	decision_ratio[1] 	0
scalar abilene_cost_network.node[1].content_store 	correction_factor[1] 	0.013612850530901
scalar abilene_cost_network.node[1].content_store 	kappa[1] 	1
scalar abilene_cost_network.node[2].core_layer 	interests[2] 	105015
scalar abilene_cost_network.node[2].core_layer 	data[2] 	95461
scalar abilene_cost_network.node[2].content_store 	p_hit[2] 	0.090977479407704
scalar abilene_cost_network.node[2].content_store 	hits[2] 	9554
scalar abilene_cost_network.node[2].content_store 	misses[2] 	95461
scalar abilene_cost_network.node[2].content_store 	decision_yes[2] 	4214
scalar abilene_cost_network.node[2].content_store 	decision_no[2] 	91247
scalar abilene_cost_network.node[2].content_store 	decision_ratio[2] 	0.044143681712951
scalar abilene_cost_network.node[2].content_store 	correction_factor[2] 	0.013612850530901
scalar abilene_cost_network.node[2].content_store 	kappa[2] 	1
scalar abilene_cost_network.node[3].core_layer 	interests[3] 	285953
scalar abilene_cost_network.node[3].core_layer 	data[3] 	251101
scalar abilene_cost_network.node[3].content_store 	p_hit[3] 	0.1173654411739
scalar abilene_cost_network.node[3].content_store 	hits[3] 	33561
scalar abilene_cost_network.node[3].content_store 	misses[3] 	252392
scalar abilene_cost_network.node[3].content_store 	decision_yes[3] 	5099
scalar abilene_cost_network.node[3].content_store 	decision_no[3] 	246002
scalar abilene_cost_network.node[3].content_store 	decision_ratio[3] 	0.020306569866309
scalar abilene_cost_network.node[3].content_store 	correction_factor[3] 	0.013612850530901
scalar abilene_cost_network.node[3].content_store 	kappa[3] 	1
scalar abilene_cost_network.node[4].core_layer 	interests[4] 	122580
scalar abilene_cost_network.node[4].core_layer 	repo_load[4] 	87908
scalar abilene_cost_network.node[4].core_layer 	data[4] 	0
scalar abilene_cost_network.node[4].content_store 	p_hit[4] 	0.28285201501061
scalar abilene_cost_network.node[4].content_store 	hits[4] 	34672
scalar abilene_cost_network.node[4].content_store 	misses[4] 	87908
scalar abilene_cost_network.node[4].content_store 	decision_yes[4] 	1184
scalar abilene_cost_network.node[4].content_store 	decision_no[4] 	86724
scalar abilene_cost_network.node[4].content_store 	decision_ratio[4] 	0.013468626291123
scalar abilene_cost_network.node[4].content_store 	correction_factor[4] 	0.013612850530901
scalar abilene_cost_network.node[4].content_store 	kappa[4] 	1
scalar abilene_cost_network.node[5].core_layer 	interests[5] 	0
scalar abilene_cost_network.node[5].core_layer 	data[5] 	0
scalar abilene_cost_network.node[5].content_store 	p_hit[5] 	-nan
scalar abilene_cost_network.node[5].content_store 	hits[5] 	0
scalar abilene_cost_network.node[5].content_store 	misses[5] 	0
scalar abilene_cost_network.node[5].content_store 	decision_yes[5] 	0
scalar abilene_cost_network.node[5].content_store 	decision_no[5] 	0
scalar abilene_cost_network.node[5].content_store 	decision_ratio[5] 	0
scalar abilene_cost_network.node[5].content_store 	correction_factor[5] 	0.013612850530901
scalar abilene_cost_network.node[5].content_store 	kappa[5] 	1
scalar abilene_cost_network.node[6].core_layer 	interests[6] 	142662
scalar abilene_cost_network.node[6].core_layer 	repo_load[6] 	142662
scalar abilene_cost_network.node[6].core_layer 	data[6] 	0
scalar abilene_cost_network.node[6].content_store 	p_hit[6] 	0
scalar abilene_cost_network.node[6].content_store 	hits[6] 	0
scalar abilene_cost_network.node[6].content_store 	misses[6] 	142662
scalar abilene_cost_network.node[6].content_store 	decision_yes[6] 	0
scalar abilene_cost_network.node[6].content_store 	decision_no[6] 	142662
scalar abilene_cost_network.node[6].content_store 	decision_ratio[6] 	0
scalar abilene_cost_network.node[6].content_store 	correction_factor[6] 	0.013612850530901
scalar abilene_cost_network.node[6].content_store 	kappa[6] 	1
scalar abilene_cost_network.node[7].core_layer 	interests[7] 	299837
scalar abilene_cost_network.node[7].core_layer 	data[7] 	249782
scalar abilene_cost_network.node[7].content_store 	p_hit[7] 	0.16474617875712
scalar abilene_cost_network.node[7].content_store 	hits[7] 	49397
scalar abilene_cost_network.node[7].content_store 	misses[7] 	250440
scalar abilene_cost_network.node[7].content_store 	decision_yes[7] 	4204
scalar abilene_cost_network.node[7].content_store 	decision_no[7] 	245578
scalar abilene_cost_network.node[7].content_store 	decision_ratio[7] 	0.016830676349777
scalar abilene_cost_network.node[7].content_store 	correction_factor[7] 	0.013612850530901
scalar abilene_cost_network.node[7].content_store 	kappa[7] 	1
scalar abilene_cost_network.node[8].core_layer 	interests[8] 	201584
scalar abilene_cost_network.node[8].core_layer 	data[8] 	163582
scalar abilene_cost_network.node[8].content_store 	p_hit[8] 	0.18796630684975
scalar abilene_cost_network.node[8].content_store 	hits[8] 	37891
scalar abilene_cost_network.node[8].content_store 	misses[8] 	163693
scalar abilene_cost_network.node[8].content_store 	decision_yes[8] 	8090
scalar abilene_cost_network.node[8].content_store 	decision_no[8] 	155492
scalar abilene_cost_network.node[8].content_store 	decision_ratio[8] 	0.049455319044883
scalar abilene_cost_network.node[8].content_store 	correction_factor[8] 	0.013612850530901
scalar abilene_cost_network.node[8].content_store 	kappa[8] 	1
scalar abilene_cost_network.node[9].core_layer 	interests[9] 	247362
scalar abilene_cost_network.node[9].core_layer 	repo_load[9] 	94829
scalar abilene_cost_network.node[9].core_layer 	data[9] 	105155
scalar abilene_cost_network.node[9].content_store 	p_hit[9] 	0.18806849879933
scalar abilene_cost_network.node[9].content_store 	hits[9] 	46521
scalar abilene_cost_network.node[9].content_store 	misses[9] 	200841
scalar abilene_cost_network.node[9].content_store 	decision_yes[9] 	13155
scalar abilene_cost_network.node[9].content_store 	decision_no[9] 	186829
scalar abilene_cost_network.node[9].content_store 	decision_ratio[9] 	0.065780262420994
scalar abilene_cost_network.node[9].content_store 	correction_factor[9] 	0.013612850530901
scalar abilene_cost_network.node[9].content_store 	kappa[9] 	1
scalar abilene_cost_network.node[10].core_layer 	interests[10] 	0
scalar abilene_cost_network.node[10].core_layer 	data[10] 	0
scalar abilene_cost_network.node[10].content_store 	p_hit[10] 	-nan
scalar abilene_cost_network.node[10].content_store 	hits[10] 	0
scalar abilene_cost_network.node[10].content_store 	misses[10] 	0
scalar abilene_cost_network.node[10].content_store 	decision_yes[10] 	0
scalar abilene_cost_network.node[10].content_store 	decision_no[10] 	0
scalar abilene_cost_network.node[10].content_store 	decision_ratio[10] 	0
scalar abilene_cost_network.node[10].content_store 	correction_factor[10] 	0.013612850530901
scalar abilene_cost_network.node[10].content_store 	kappa[10] 	1
scalar abilene_cost_network.client[3] 	hdistance[3] 	2.2340337381236
scalar abilene_cost_network.client[3] 	downloads[3] 	178611
scalar abilene_cost_network.client[3] 	avg_time[3] 	0.009822712538
scalar abilene_cost_network.client[7] 	hdistance[7] 	1.8869397445663
scalar abilene_cost_network.client[7] 	downloads[7] 	179851
scalar abilene_cost_network.client[7] 	avg_time[7] 	0.008368778988
scalar abilene_cost_network.client[9] 	hdistance[9] 	2.5298927014641
scalar abilene_cost_network.client[9] 	downloads[9] 	178940
scalar abilene_cost_network.client[9] 	avg_time[9] 	0.015756780288
