version 2
run General-1-20150720-14:11:02-11915
attr C 11667
attr D lce
attr F spr
attr R lru
attr a 1
attr brates 1
attr configname General
attr ctlg 1e5
attr datetime 20150720-14:11:02
attr experiment General
attr inifile omnetpp.ini
attr iterationvars "$net=abilene_nodelay, $rep=0, $lambda=100, $a=1, $ctlg=1e5, $brates=1, $F=spr, $ttl=1000, $D=lce, $R=lru, $C=11667, $window=60, $variance=0.05, $mytime=1800"
attr iterationvars2 "$net=abilene_nodelay, $rep=0, $lambda=100, $a=1, $ctlg=1e5, $brates=1, $F=spr, $ttl=1000, $D=lce, $R=lru, $C=11667, $window=60, $variance=0.05, $mytime=1800, $repetition=0"
attr lambda 100
attr measurement "$net=abilene_nodelay, $rep=0, $lambda=100, $a=1, $ctlg=1e5, $brates=1, $F=spr, $ttl=1000, $D=lce, $R=lru, $C=11667, $window=60, $variance=0.05, $mytime=1800"
attr mytime 1800
attr net abilene_nodelay
attr network networks.${net=abilene_nodelay}_network
attr processid 11915
attr rep 0
attr repetition 0
attr replication #0
attr resultdir results
attr runnumber 1
attr seedset 0
attr ttl 1000
attr variance 0.05
attr window 60

scalar . 	C 	11667
scalar . 	a 	1
scalar . 	brates 	1
scalar . 	ctlg 	1e5
scalar . 	lambda 	100
scalar . 	mytime 	1800
scalar . 	rep 	0
scalar . 	ttl 	1000
scalar . 	variance 	0.05
scalar . 	window 	60
scalar abilene_nodelay_network.content_distribution 	repo-0 	5
scalar abilene_nodelay_network.content_distribution 	repo-1 	8
scalar abilene_nodelay_network.content_distribution 	repo-2 	9
scalar abilene_nodelay_network.content_distribution 	repo-3 	0
scalar abilene_nodelay_network.content_distribution 	repo-4 	1
scalar abilene_nodelay_network.content_distribution 	repo-5 	7
scalar abilene_nodelay_network.content_distribution 	repo-6 	6
scalar abilene_nodelay_network.content_distribution 	repo-7 	2
scalar abilene_nodelay_network.content_distribution 	repo-8 	4
scalar abilene_nodelay_network.content_distribution 	repo-9 	10
scalar abilene_nodelay_network.content_distribution 	repo-10 	3
scalar abilene_nodelay_network.content_distribution 	client-0 	10
scalar abilene_nodelay_network.content_distribution 	client-1 	9
scalar abilene_nodelay_network.content_distribution 	client-2 	8
scalar abilene_nodelay_network.content_distribution 	client-3 	7
scalar abilene_nodelay_network.content_distribution 	client-4 	3
scalar abilene_nodelay_network.content_distribution 	client-5 	6
scalar abilene_nodelay_network.content_distribution 	client-6 	5
scalar abilene_nodelay_network.content_distribution 	client-7 	1
scalar abilene_nodelay_network.content_distribution 	client-8 	4
scalar abilene_nodelay_network.content_distribution 	client-9 	0
scalar abilene_nodelay_network.content_distribution 	client-10 	2
scalar abilene_nodelay_network.content_distribution 	repo-0_card 	9071
scalar abilene_nodelay_network.content_distribution 	repo-0_price 	0
scalar abilene_nodelay_network.content_distribution 	repo-1_card 	8986
scalar abilene_nodelay_network.content_distribution 	repo-1_price 	0
scalar abilene_nodelay_network.content_distribution 	repo-2_card 	9050
scalar abilene_nodelay_network.content_distribution 	repo-2_price 	0
scalar abilene_nodelay_network.content_distribution 	repo-3_card 	8986
scalar abilene_nodelay_network.content_distribution 	repo-3_price 	0
scalar abilene_nodelay_network.content_distribution 	repo-4_card 	9064
scalar abilene_nodelay_network.content_distribution 	repo-4_price 	0
scalar abilene_nodelay_network.content_distribution 	repo-5_card 	9170
scalar abilene_nodelay_network.content_distribution 	repo-5_price 	0
scalar abilene_nodelay_network.content_distribution 	repo-6_card 	9151
scalar abilene_nodelay_network.content_distribution 	repo-6_price 	0
scalar abilene_nodelay_network.content_distribution 	repo-7_card 	9112
scalar abilene_nodelay_network.content_distribution 	repo-7_price 	0
scalar abilene_nodelay_network.content_distribution 	repo-8_card 	9132
scalar abilene_nodelay_network.content_distribution 	repo-8_price 	0
scalar abilene_nodelay_network.content_distribution 	repo-9_card 	9101
scalar abilene_nodelay_network.content_distribution 	repo-9_price 	0
scalar abilene_nodelay_network.content_distribution 	repo-10_card 	9177
scalar abilene_nodelay_network.content_distribution 	repo-10_price 	0
scalar abilene_nodelay_network.statistics 	stabilization_time 	458.3
scalar abilene_nodelay_network.statistics 	p_hit 	0.47003872777908
scalar abilene_nodelay_network.statistics 	interests 	275278.09090909
scalar abilene_nodelay_network.statistics 	data 	95205.909090909
scalar abilene_nodelay_network.statistics 	hdistance 	0.81014284075415
scalar abilene_nodelay_network.statistics 	avg_time 	0
scalar abilene_nodelay_network.statistics 	downloads 	1980794
scalar abilene_nodelay_network.statistics 	total_cost 	0
scalar abilene_nodelay_network.statistics 	total_replicas 	100000
scalar abilene_nodelay_network.statistics 	"representations_downloaded 1:" 	0
scalar abilene_nodelay_network.statistics 	"slots_per_representation 100:" 	0
scalar abilene_nodelay_network.statistics 	inner_hit 	0.71855276217517
scalar abilene_nodelay_network.statistics 	execution_time 	38
scalar abilene_nodelay_network.node[0].core_layer 	interests[0] 	211298
scalar abilene_nodelay_network.node[0].core_layer 	repo_load[0] 	43389
scalar abilene_nodelay_network.node[0].core_layer 	data[0] 	44975
scalar abilene_nodelay_network.node[0].core_layer 	slots_sent[face$o[1]->client[0]] 	18070600
scalar abilene_nodelay_network.node[0].core_layer 	slots_sent[face$o[2]->node[1]] 	2291300
scalar abilene_nodelay_network.node[0].core_layer 	slots_sent[face$o[3]->node[10]] 	767900
scalar abilene_nodelay_network.node[0].content_store 	p_hit[0] 	0.58180389781257
scalar abilene_nodelay_network.node[0].content_store 	hits[0] 	122934
scalar abilene_nodelay_network.node[0].content_store 	misses[0] 	88364
scalar abilene_nodelay_network.node[0].content_store 	decision_yes[0] 	44975
scalar abilene_nodelay_network.node[0].content_store 	decision_no[0] 	43389
scalar abilene_nodelay_network.node[0].content_store 	decision_ratio[0] 	0.50897424290435
scalar abilene_nodelay_network.node[1].core_layer 	interests[1] 	307760
scalar abilene_nodelay_network.node[1].core_layer 	repo_load[1] 	55160
scalar abilene_nodelay_network.node[1].core_layer 	data[1] 	121851
scalar abilene_nodelay_network.node[1].core_layer 	slots_sent[face$o[1]->client[1]] 	18095100
scalar abilene_nodelay_network.node[1].core_layer 	slots_sent[face$o[2]->node[0]] 	3586200
scalar abilene_nodelay_network.node[1].core_layer 	slots_sent[face$o[3]->node[10]] 	2716900
scalar abilene_nodelay_network.node[1].core_layer 	slots_sent[face$o[4]->node[2]] 	6377800
scalar abilene_nodelay_network.node[1].content_store 	p_hit[1] 	0.42484078502729
scalar abilene_nodelay_network.node[1].content_store 	hits[1] 	130749
scalar abilene_nodelay_network.node[1].content_store 	misses[1] 	177011
scalar abilene_nodelay_network.node[1].content_store 	decision_yes[1] 	121851
scalar abilene_nodelay_network.node[1].content_store 	decision_no[1] 	55160
scalar abilene_nodelay_network.node[1].content_store 	decision_ratio[1] 	0.68838094807667
scalar abilene_nodelay_network.node[2].core_layer 	interests[2] 	380426
scalar abilene_nodelay_network.node[2].core_layer 	repo_load[2] 	61447
scalar abilene_nodelay_network.node[2].core_layer 	data[2] 	182151
scalar abilene_nodelay_network.node[2].core_layer 	slots_sent[face$o[1]->client[2]] 	17992900
scalar abilene_nodelay_network.node[2].core_layer 	slots_sent[face$o[2]->node[1]] 	7572900
scalar abilene_nodelay_network.node[2].core_layer 	slots_sent[face$o[3]->node[3]] 	8712500
scalar abilene_nodelay_network.node[2].core_layer 	slots_sent[face$o[4]->node[8]] 	3764300
scalar abilene_nodelay_network.node[2].content_store 	p_hit[2] 	0.35967047467839
scalar abilene_nodelay_network.node[2].content_store 	hits[2] 	136828
scalar abilene_nodelay_network.node[2].content_store 	misses[2] 	243598
scalar abilene_nodelay_network.node[2].content_store 	decision_yes[2] 	182151
scalar abilene_nodelay_network.node[2].content_store 	decision_no[2] 	61447
scalar abilene_nodelay_network.node[2].content_store 	decision_ratio[2] 	0.74775244460135
scalar abilene_nodelay_network.node[3].core_layer 	interests[3] 	363542
scalar abilene_nodelay_network.node[3].core_layer 	repo_load[3] 	52577
scalar abilene_nodelay_network.node[3].core_layer 	data[3] 	167623
scalar abilene_nodelay_network.node[3].core_layer 	slots_sent[face$o[1]->client[3]] 	17938400
scalar abilene_nodelay_network.node[3].core_layer 	slots_sent[face$o[2]->node[2]] 	8588800
scalar abilene_nodelay_network.node[3].core_layer 	slots_sent[face$o[3]->node[4]] 	5665100
scalar abilene_nodelay_network.node[3].core_layer 	slots_sent[face$o[4]->node[7]] 	4161900
scalar abilene_nodelay_network.node[3].content_store 	p_hit[3] 	0.39429281898653
scalar abilene_nodelay_network.node[3].content_store 	hits[3] 	143342
scalar abilene_nodelay_network.node[3].content_store 	misses[3] 	220200
scalar abilene_nodelay_network.node[3].content_store 	decision_yes[3] 	167623
scalar abilene_nodelay_network.node[3].content_store 	decision_no[3] 	52577
scalar abilene_nodelay_network.node[3].content_store 	decision_ratio[3] 	0.76123069936421
scalar abilene_nodelay_network.node[4].core_layer 	interests[4] 	255492
scalar abilene_nodelay_network.node[4].core_layer 	repo_load[4] 	46369
scalar abilene_nodelay_network.node[4].core_layer 	data[4] 	78503
scalar abilene_nodelay_network.node[4].core_layer 	slots_sent[face$o[1]->client[4]] 	18014000
scalar abilene_nodelay_network.node[4].core_layer 	slots_sent[face$o[2]->node[3]] 	4459300
scalar abilene_nodelay_network.node[4].core_layer 	slots_sent[face$o[3]->node[5]] 	3075900
scalar abilene_nodelay_network.node[4].content_store 	p_hit[4] 	0.51124888450519
scalar abilene_nodelay_network.node[4].content_store 	hits[4] 	130620
scalar abilene_nodelay_network.node[4].content_store 	misses[4] 	124872
scalar abilene_nodelay_network.node[4].content_store 	decision_yes[4] 	78503
scalar abilene_nodelay_network.node[4].content_store 	decision_no[4] 	46369
scalar abilene_nodelay_network.node[4].content_store 	decision_ratio[4] 	0.62866775578192
scalar abilene_nodelay_network.node[5].core_layer 	interests[5] 	219267
scalar abilene_nodelay_network.node[5].core_layer 	repo_load[5] 	57023
scalar abilene_nodelay_network.node[5].core_layer 	data[5] 	52232
scalar abilene_nodelay_network.node[5].core_layer 	slots_sent[face$o[1]->client[5]] 	18006400
scalar abilene_nodelay_network.node[5].core_layer 	slots_sent[face$o[2]->node[4]] 	2185200
scalar abilene_nodelay_network.node[5].core_layer 	slots_sent[face$o[3]->node[6]] 	1735100
scalar abilene_nodelay_network.node[5].content_store 	p_hit[5] 	0.50172620594982
scalar abilene_nodelay_network.node[5].content_store 	hits[5] 	110012
scalar abilene_nodelay_network.node[5].content_store 	misses[5] 	109255
scalar abilene_nodelay_network.node[5].content_store 	decision_yes[5] 	52232
scalar abilene_nodelay_network.node[5].content_store 	decision_no[5] 	57023
scalar abilene_nodelay_network.node[5].content_store 	decision_ratio[5] 	0.47807423001236
scalar abilene_nodelay_network.node[6].core_layer 	interests[6] 	235079
scalar abilene_nodelay_network.node[6].core_layer 	repo_load[6] 	43136
scalar abilene_nodelay_network.node[6].core_layer 	data[6] 	65777
scalar abilene_nodelay_network.node[6].core_layer 	slots_sent[face$o[1]->client[6]] 	17928100
scalar abilene_nodelay_network.node[6].core_layer 	slots_sent[face$o[2]->node[5]] 	2147300
scalar abilene_nodelay_network.node[6].core_layer 	slots_sent[face$o[3]->node[7]] 	3432500
scalar abilene_nodelay_network.node[6].content_store 	p_hit[6] 	0.53669617447752
scalar abilene_nodelay_network.node[6].content_store 	hits[6] 	126166
scalar abilene_nodelay_network.node[6].content_store 	misses[6] 	108913
scalar abilene_nodelay_network.node[6].content_store 	decision_yes[6] 	65777
scalar abilene_nodelay_network.node[6].content_store 	decision_no[6] 	43136
scalar abilene_nodelay_network.node[6].content_store 	decision_ratio[6] 	0.60394076005619
scalar abilene_nodelay_network.node[7].core_layer 	interests[7] 	296801
scalar abilene_nodelay_network.node[7].core_layer 	repo_load[7] 	51137
scalar abilene_nodelay_network.node[7].core_layer 	data[7] 	107354
scalar abilene_nodelay_network.node[7].core_layer 	slots_sent[face$o[1]->client[7]] 	18053400
scalar abilene_nodelay_network.node[7].core_layer 	slots_sent[face$o[2]->node[3]] 	3590500
scalar abilene_nodelay_network.node[7].core_layer 	slots_sent[face$o[3]->node[6]] 	4842600
scalar abilene_nodelay_network.node[7].core_layer 	slots_sent[face$o[4]->node[8]] 	3193600
scalar abilene_nodelay_network.node[7].content_store 	p_hit[7] 	0.46600247303749
scalar abilene_nodelay_network.node[7].content_store 	hits[7] 	138310
scalar abilene_nodelay_network.node[7].content_store 	misses[7] 	158491
scalar abilene_nodelay_network.node[7].content_store 	decision_yes[7] 	107354
scalar abilene_nodelay_network.node[7].content_store 	decision_no[7] 	51137
scalar abilene_nodelay_network.node[7].content_store 	decision_ratio[7] 	0.67735076439672
scalar abilene_nodelay_network.node[8].core_layer 	interests[8] 	287929
scalar abilene_nodelay_network.node[8].core_layer 	repo_load[8] 	47937
scalar abilene_nodelay_network.node[8].core_layer 	data[8] 	101455
scalar abilene_nodelay_network.node[8].core_layer 	slots_sent[face$o[1]->client[8]] 	18026900
scalar abilene_nodelay_network.node[8].core_layer 	slots_sent[face$o[2]->node[2]] 	3248500
scalar abilene_nodelay_network.node[8].core_layer 	slots_sent[face$o[3]->node[7]] 	3141000
scalar abilene_nodelay_network.node[8].core_layer 	slots_sent[face$o[4]->node[9]] 	4376500
scalar abilene_nodelay_network.node[8].content_store 	p_hit[8] 	0.48114986680744
scalar abilene_nodelay_network.node[8].content_store 	hits[8] 	138537
scalar abilene_nodelay_network.node[8].content_store 	misses[8] 	149392
scalar abilene_nodelay_network.node[8].content_store 	decision_yes[8] 	101455
scalar abilene_nodelay_network.node[8].content_store 	decision_no[8] 	47937
scalar abilene_nodelay_network.node[8].content_store 	decision_ratio[8] 	0.67911936382136
scalar abilene_nodelay_network.node[9].core_layer 	interests[9] 	235743
scalar abilene_nodelay_network.node[9].core_layer 	repo_load[9] 	45341
scalar abilene_nodelay_network.node[9].core_layer 	data[9] 	66018
scalar abilene_nodelay_network.node[9].core_layer 	slots_sent[face$o[1]->client[9]] 	17938900
scalar abilene_nodelay_network.node[9].core_layer 	slots_sent[face$o[2]->node[10]] 	2447800
scalar abilene_nodelay_network.node[9].core_layer 	slots_sent[face$o[3]->node[8]] 	3187600
scalar abilene_nodelay_network.node[9].content_store 	p_hit[9] 	0.52762542260003
scalar abilene_nodelay_network.node[9].content_store 	hits[9] 	124384
scalar abilene_nodelay_network.node[9].content_store 	misses[9] 	111359
scalar abilene_nodelay_network.node[9].content_store 	decision_yes[9] 	66018
scalar abilene_nodelay_network.node[9].content_store 	decision_no[9] 	45341
scalar abilene_nodelay_network.node[9].content_store 	decision_ratio[9] 	0.59283937535359
scalar abilene_nodelay_network.node[10].core_layer 	interests[10] 	234722
scalar abilene_nodelay_network.node[10].core_layer 	repo_load[10] 	53973
scalar abilene_nodelay_network.node[10].core_layer 	data[10] 	59326
scalar abilene_nodelay_network.node[10].core_layer 	slots_sent[face$o[1]->client[10]] 	18014700
scalar abilene_nodelay_network.node[10].core_layer 	slots_sent[face$o[2]->node[0]] 	911300
scalar abilene_nodelay_network.node[10].core_layer 	slots_sent[face$o[3]->node[1]] 	2320900
scalar abilene_nodelay_network.node[10].core_layer 	slots_sent[face$o[4]->node[9]] 	2225300
scalar abilene_nodelay_network.node[10].content_store 	p_hit[10] 	0.51730557851416
scalar abilene_nodelay_network.node[10].content_store 	hits[10] 	121423
scalar abilene_nodelay_network.node[10].content_store 	misses[10] 	113299
scalar abilene_nodelay_network.node[10].content_store 	decision_yes[10] 	59326
scalar abilene_nodelay_network.node[10].content_store 	decision_no[10] 	53973
scalar abilene_nodelay_network.node[10].content_store 	decision_ratio[10] 	0.52362333295086
scalar abilene_nodelay_network.client[0] 	hdistance[0].real 	0.84167100151627
scalar abilene_nodelay_network.client[0] 	downloads[0].real 	180706
scalar abilene_nodelay_network.client[0] 	avg_time[0].real 	0
scalar abilene_nodelay_network.client[1] 	hdistance[1].real 	0.8451072389763
scalar abilene_nodelay_network.client[1] 	downloads[1].real 	180951
scalar abilene_nodelay_network.client[1] 	avg_time[1].real 	0
scalar abilene_nodelay_network.client[2] 	hdistance[2].real 	0.79808702321471
scalar abilene_nodelay_network.client[2] 	downloads[2].real 	179929
scalar abilene_nodelay_network.client[2] 	avg_time[2].real 	0
scalar abilene_nodelay_network.client[3] 	hdistance[3].real 	0.76601592115239
scalar abilene_nodelay_network.client[3] 	downloads[3].real 	179384
scalar abilene_nodelay_network.client[3] 	avg_time[3].real 	0
scalar abilene_nodelay_network.client[4] 	hdistance[4].real 	0.82555789941157
scalar abilene_nodelay_network.client[4] 	downloads[4].real 	180140
scalar abilene_nodelay_network.client[4] 	avg_time[4].real 	0
scalar abilene_nodelay_network.client[5] 	hdistance[5].real 	0.92821441265328
scalar abilene_nodelay_network.client[5] 	downloads[5].real 	180064
scalar abilene_nodelay_network.client[5] 	avg_time[5].real 	0
scalar abilene_nodelay_network.client[6] 	hdistance[6].real 	0.82798511833379
scalar abilene_nodelay_network.client[6] 	downloads[6].real 	179281
scalar abilene_nodelay_network.client[6] 	avg_time[6].real 	0
scalar abilene_nodelay_network.client[7] 	hdistance[7].real 	0.73695259618688
scalar abilene_nodelay_network.client[7] 	downloads[7].real 	180534
scalar abilene_nodelay_network.client[7] 	avg_time[7].real 	0
scalar abilene_nodelay_network.client[8] 	hdistance[8].real 	0.71043828944521
scalar abilene_nodelay_network.client[8] 	downloads[8].real 	180269
scalar abilene_nodelay_network.client[8] 	avg_time[8].real 	0
scalar abilene_nodelay_network.client[9] 	hdistance[9].real 	0.79465853536171
scalar abilene_nodelay_network.client[9] 	downloads[9].real 	179389
scalar abilene_nodelay_network.client[9] 	avg_time[9].real 	0
scalar abilene_nodelay_network.client[10] 	hdistance[10].real 	0.8368832120435
scalar abilene_nodelay_network.client[10] 	downloads[10].real 	180147
scalar abilene_nodelay_network.client[10] 	avg_time[10].real 	0
