version 2
run General-17-20140930-18:45:29-19945
attr D fix0.01
attr F nrr
attr R lru
attr a 1
attr configname General
attr csize 1e3
attr ctlg 1e5
attr datetime 20140930-18:45:29
attr experiment General
attr inifile omnetpp.ini
attr iterationvars "$net=tiger_cost, $rep=5, $priceratiovalue=10, $weights=0.333_0.333_0.334, $lambda=100, $a=1, $ctlg=1e5, $F=nrr, $ttl=10, $D=fix0.01, $xi=1, $R=lru, $csize=1e3, $pricebits=0, $window=60, $variance=0.05, $mytime=1800"
attr iterationvars2 "$net=tiger_cost, $rep=5, $priceratiovalue=10, $weights=0.333_0.333_0.334, $lambda=100, $a=1, $ctlg=1e5, $F=nrr, $ttl=10, $D=fix0.01, $xi=1, $R=lru, $csize=1e3, $pricebits=0, $window=60, $variance=0.05, $mytime=1800, $repetition=0"
attr lambda 100
attr measurement "$net=tiger_cost, $rep=5, $priceratiovalue=10, $weights=0.333_0.333_0.334, $lambda=100, $a=1, $ctlg=1e5, $F=nrr, $ttl=10, $D=fix0.01, $xi=1, $R=lru, $csize=1e3, $pricebits=0, $window=60, $variance=0.05, $mytime=1800"
attr mytime 1800
attr net tiger_cost
attr network networks.${net=tiger_cost,dtelecom_cost}_network
attr pricebits 0
attr priceratiovalue 10
attr processid 19945
attr rep 5
attr repetition 0
attr replication #0
attr resultdir results
attr runnumber 17
attr seedset 5
attr ttl 10
attr variance 0.05
attr weights 0.333_0.333_0.334
attr window 60
attr xi 1

scalar . 	a 	1
scalar . 	csize 	1e3
scalar . 	ctlg 	1e5
scalar . 	lambda 	100
scalar . 	mytime 	1800
scalar . 	pricebits 	0
scalar . 	priceratiovalue 	10
scalar . 	rep 	5
scalar . 	ttl 	10
scalar . 	variance 	0.05
scalar . 	window 	60
scalar . 	xi 	1
scalar tiger_cost_network.content_distribution 	repo-0 	9
scalar tiger_cost_network.content_distribution 	repo-1 	14
scalar tiger_cost_network.content_distribution 	repo-2 	5
scalar tiger_cost_network.content_distribution 	client-0 	4
scalar tiger_cost_network.content_distribution 	client-1 	9
scalar tiger_cost_network.content_distribution 	client-2 	0
scalar tiger_cost_network.content_distribution 	repo-0_card 	33098
scalar tiger_cost_network.content_distribution 	repo-0_price 	0
scalar tiger_cost_network.content_distribution 	repo-1_card 	33495
scalar tiger_cost_network.content_distribution 	repo-1_price 	10
scalar tiger_cost_network.content_distribution 	repo-2_card 	33407
scalar tiger_cost_network.content_distribution 	repo-2_price 	1
scalar tiger_cost_network.statistics 	repo_popularity[0] 	0.31037770261398
scalar tiger_cost_network.statistics 	repo_popularity[1] 	0.29913869324176
scalar tiger_cost_network.statistics 	repo_popularity[2] 	0.39048360414427
scalar tiger_cost_network.statistics 	stabilization_time 	36120
scalar tiger_cost_network.statistics 	p_hit 	0.19125106211285
scalar tiger_cost_network.statistics 	interests 	64889.954545455
scalar tiger_cost_network.statistics 	data 	40369.227272727
scalar tiger_cost_network.statistics 	hdistance 	2.1401822215689
scalar tiger_cost_network.statistics 	avg_time 	0.000682680219
scalar tiger_cost_network.statistics 	downloads 	539450
scalar tiger_cost_network.statistics 	total_cost 	900448
scalar tiger_cost_network.statistics 	total_replicas 	100000
scalar tiger_cost_network.statistics 	inner_hit 	0.50611919547687
scalar tiger_cost_network.node[0].core_layer 	interests[0] 	182106
scalar tiger_cost_network.node[0].core_layer 	data[0] 	120447
scalar tiger_cost_network.node[0].core_layer 	repo_int[0] 	266424
scalar tiger_cost_network.node[0].content_store 	p_hit[0] 	0.33858302307447
scalar tiger_cost_network.node[0].content_store 	hits[0] 	61658
scalar tiger_cost_network.node[0].content_store 	misses[0] 	120448
scalar tiger_cost_network.node[0].content_store 	decision_yes[0] 	1174
scalar tiger_cost_network.node[0].content_store 	decision_no[0] 	119273
scalar tiger_cost_network.node[0].content_store 	decision_ratio[0] 	0.0097470256627396
scalar tiger_cost_network.node[1].core_layer 	interests[1] 	61185
scalar tiger_cost_network.node[1].core_layer 	data[1] 	58731
scalar tiger_cost_network.node[1].content_store 	p_hit[1] 	0.040107869575876
scalar tiger_cost_network.node[1].content_store 	hits[1] 	2454
scalar tiger_cost_network.node[1].content_store 	misses[1] 	58731
scalar tiger_cost_network.node[1].content_store 	decision_yes[1] 	603
scalar tiger_cost_network.node[1].content_store 	decision_no[1] 	58128
scalar tiger_cost_network.node[1].content_store 	decision_ratio[1] 	0.010267150227308
scalar tiger_cost_network.node[2].core_layer 	interests[2] 	67924
scalar tiger_cost_network.node[2].core_layer 	data[2] 	63491
scalar tiger_cost_network.node[2].content_store 	p_hit[2] 	0.065264118720923
scalar tiger_cost_network.node[2].content_store 	hits[2] 	4433
scalar tiger_cost_network.node[2].content_store 	misses[2] 	63491
scalar tiger_cost_network.node[2].content_store 	decision_yes[2] 	638
scalar tiger_cost_network.node[2].content_store 	decision_no[2] 	62853
scalar tiger_cost_network.node[2].content_store 	decision_ratio[2] 	0.010048668315194
scalar tiger_cost_network.node[3].core_layer 	interests[3] 	95144
scalar tiger_cost_network.node[3].core_layer 	data[3] 	91764
scalar tiger_cost_network.node[3].content_store 	p_hit[3] 	0.035525098797612
scalar tiger_cost_network.node[3].content_store 	hits[3] 	3380
scalar tiger_cost_network.node[3].content_store 	misses[3] 	91764
scalar tiger_cost_network.node[3].content_store 	decision_yes[3] 	898
scalar tiger_cost_network.node[3].content_store 	decision_no[3] 	90866
scalar tiger_cost_network.node[3].content_store 	decision_ratio[3] 	0.0097859727126106
scalar tiger_cost_network.node[4].core_layer 	interests[4] 	180103
scalar tiger_cost_network.node[4].core_layer 	data[4] 	120094
scalar tiger_cost_network.node[4].content_store 	p_hit[4] 	0.33317046356807
scalar tiger_cost_network.node[4].content_store 	hits[4] 	60005
scalar tiger_cost_network.node[4].content_store 	misses[4] 	120098
scalar tiger_cost_network.node[4].content_store 	decision_yes[4] 	1222
scalar tiger_cost_network.node[4].content_store 	decision_no[4] 	118872
scalar tiger_cost_network.node[4].content_store 	decision_ratio[4] 	0.010175362632604
scalar tiger_cost_network.node[5].core_layer 	interests[5] 	93036
scalar tiger_cost_network.node[5].core_layer 	repo_load[5] 	87408
scalar tiger_cost_network.node[5].core_layer 	data[5] 	0
scalar tiger_cost_network.node[5].content_store 	p_hit[5] 	0.060492712498388
scalar tiger_cost_network.node[5].content_store 	hits[5] 	5628
scalar tiger_cost_network.node[5].content_store 	misses[5] 	87408
scalar tiger_cost_network.node[5].content_store 	decision_yes[5] 	856
scalar tiger_cost_network.node[5].content_store 	decision_no[5] 	86552
scalar tiger_cost_network.node[5].content_store 	decision_ratio[5] 	0.009793153944719
scalar tiger_cost_network.node[6].core_layer 	interests[6] 	29103
scalar tiger_cost_network.node[6].core_layer 	data[6] 	27247
scalar tiger_cost_network.node[6].content_store 	p_hit[6] 	0.063773494141497
scalar tiger_cost_network.node[6].content_store 	hits[6] 	1856
scalar tiger_cost_network.node[6].content_store 	misses[6] 	27247
scalar tiger_cost_network.node[6].content_store 	decision_yes[6] 	257
scalar tiger_cost_network.node[6].content_store 	decision_no[6] 	26990
scalar tiger_cost_network.node[6].content_store 	decision_ratio[6] 	0.0094322310713106
scalar tiger_cost_network.node[7].core_layer 	interests[7] 	32184
scalar tiger_cost_network.node[7].core_layer 	data[7] 	29932
scalar tiger_cost_network.node[7].content_store 	p_hit[7] 	0.069972657220979
scalar tiger_cost_network.node[7].content_store 	hits[7] 	2252
scalar tiger_cost_network.node[7].content_store 	misses[7] 	29932
scalar tiger_cost_network.node[7].content_store 	decision_yes[7] 	306
scalar tiger_cost_network.node[7].content_store 	decision_no[7] 	29626
scalar tiger_cost_network.node[7].content_store 	decision_ratio[7] 	0.010223172524389
scalar tiger_cost_network.node[8].core_layer 	interests[8] 	91901
scalar tiger_cost_network.node[8].core_layer 	data[8] 	89913
scalar tiger_cost_network.node[8].content_store 	p_hit[8] 	0.021631973536741
scalar tiger_cost_network.node[8].content_store 	hits[8] 	1988
scalar tiger_cost_network.node[8].content_store 	misses[8] 	89913
scalar tiger_cost_network.node[8].content_store 	decision_yes[8] 	912
scalar tiger_cost_network.node[8].content_store 	decision_no[8] 	89001
scalar tiger_cost_network.node[8].content_store 	decision_ratio[8] 	0.010143138367088
scalar tiger_cost_network.node[9].core_layer 	interests[9] 	237794
scalar tiger_cost_network.node[9].core_layer 	repo_load[9] 	97712
scalar tiger_cost_network.node[9].core_layer 	data[9] 	81132
scalar tiger_cost_network.node[9].content_store 	p_hit[9] 	0.24789944237449
scalar tiger_cost_network.node[9].content_store 	hits[9] 	58949
scalar tiger_cost_network.node[9].content_store 	misses[9] 	178845
scalar tiger_cost_network.node[9].content_store 	decision_yes[9] 	1808
scalar tiger_cost_network.node[9].content_store 	decision_no[9] 	177036
scalar tiger_cost_network.node[9].content_store 	decision_ratio[9] 	0.010109369059068
scalar tiger_cost_network.node[10].core_layer 	interests[10] 	39201
scalar tiger_cost_network.node[10].core_layer 	data[10] 	32322
scalar tiger_cost_network.node[10].content_store 	p_hit[10] 	0.17548021734139
scalar tiger_cost_network.node[10].content_store 	hits[10] 	6879
scalar tiger_cost_network.node[10].content_store 	misses[10] 	32322
scalar tiger_cost_network.node[10].content_store 	decision_yes[10] 	339
scalar tiger_cost_network.node[10].content_store 	decision_no[10] 	31983
scalar tiger_cost_network.node[10].content_store 	decision_ratio[10] 	0.010488212363096
scalar tiger_cost_network.node[11].core_layer 	interests[11] 	39313
scalar tiger_cost_network.node[11].core_layer 	data[11] 	32882
scalar tiger_cost_network.node[11].content_store 	p_hit[11] 	0.1635845649022
scalar tiger_cost_network.node[11].content_store 	hits[11] 	6431
scalar tiger_cost_network.node[11].content_store 	misses[11] 	32882
scalar tiger_cost_network.node[11].content_store 	decision_yes[11] 	364
scalar tiger_cost_network.node[11].content_store 	decision_no[11] 	32518
scalar tiger_cost_network.node[11].content_store 	decision_ratio[11] 	0.01106988625996
scalar tiger_cost_network.node[12].core_layer 	interests[12] 	37224
scalar tiger_cost_network.node[12].core_layer 	data[12] 	31609
scalar tiger_cost_network.node[12].content_store 	p_hit[12] 	0.15084354180099
scalar tiger_cost_network.node[12].content_store 	hits[12] 	5615
scalar tiger_cost_network.node[12].content_store 	misses[12] 	31609
scalar tiger_cost_network.node[12].content_store 	decision_yes[12] 	314
scalar tiger_cost_network.node[12].content_store 	decision_no[12] 	31295
scalar tiger_cost_network.node[12].content_store 	decision_ratio[12] 	0.0099338795912557
scalar tiger_cost_network.node[13].core_layer 	interests[13] 	29912
scalar tiger_cost_network.node[13].core_layer 	data[13] 	27177
scalar tiger_cost_network.node[13].content_store 	p_hit[13] 	0.091434875635197
scalar tiger_cost_network.node[13].content_store 	hits[13] 	2735
scalar tiger_cost_network.node[13].content_store 	misses[13] 	27177
scalar tiger_cost_network.node[13].content_store 	decision_yes[13] 	262
scalar tiger_cost_network.node[13].content_store 	decision_no[13] 	26915
scalar tiger_cost_network.node[13].content_store 	decision_ratio[13] 	0.0096405048386503
scalar tiger_cost_network.node[14].core_layer 	interests[14] 	83704
scalar tiger_cost_network.node[14].core_layer 	repo_load[14] 	81304
scalar tiger_cost_network.node[14].core_layer 	data[14] 	0
scalar tiger_cost_network.node[14].content_store 	p_hit[14] 	0.028672464876231
scalar tiger_cost_network.node[14].content_store 	hits[14] 	2400
scalar tiger_cost_network.node[14].content_store 	misses[14] 	81304
scalar tiger_cost_network.node[14].content_store 	decision_yes[14] 	779
scalar tiger_cost_network.node[14].content_store 	decision_no[14] 	80525
scalar tiger_cost_network.node[14].content_store 	decision_ratio[14] 	0.009581324412083
scalar tiger_cost_network.node[15].core_layer 	interests[15] 	0
scalar tiger_cost_network.node[15].core_layer 	data[15] 	0
scalar tiger_cost_network.node[15].content_store 	p_hit[15] 	-nan
scalar tiger_cost_network.node[15].content_store 	hits[15] 	0
scalar tiger_cost_network.node[15].content_store 	misses[15] 	0
scalar tiger_cost_network.node[15].content_store 	decision_yes[15] 	0
scalar tiger_cost_network.node[15].content_store 	decision_no[15] 	0
scalar tiger_cost_network.node[15].content_store 	decision_ratio[15] 	0
scalar tiger_cost_network.node[16].core_layer 	interests[16] 	0
scalar tiger_cost_network.node[16].core_layer 	data[16] 	0
scalar tiger_cost_network.node[16].content_store 	p_hit[16] 	-nan
scalar tiger_cost_network.node[16].content_store 	hits[16] 	0
scalar tiger_cost_network.node[16].content_store 	misses[16] 	0
scalar tiger_cost_network.node[16].content_store 	decision_yes[16] 	0
scalar tiger_cost_network.node[16].content_store 	decision_no[16] 	0
scalar tiger_cost_network.node[16].content_store 	decision_ratio[16] 	0
scalar tiger_cost_network.node[17].core_layer 	interests[17] 	45632
scalar tiger_cost_network.node[17].core_layer 	data[17] 	34838
scalar tiger_cost_network.node[17].content_store 	p_hit[17] 	0.23654453015428
scalar tiger_cost_network.node[17].content_store 	hits[17] 	10794
scalar tiger_cost_network.node[17].content_store 	misses[17] 	34838
scalar tiger_cost_network.node[17].content_store 	decision_yes[17] 	349
scalar tiger_cost_network.node[17].content_store 	decision_no[17] 	34489
scalar tiger_cost_network.node[17].content_store 	decision_ratio[17] 	0.010017796658821
scalar tiger_cost_network.node[18].core_layer 	interests[18] 	47621
scalar tiger_cost_network.node[18].core_layer 	data[18] 	36623
scalar tiger_cost_network.node[18].content_store 	p_hit[18] 	0.23094853111022
scalar tiger_cost_network.node[18].content_store 	hits[18] 	10998
scalar tiger_cost_network.node[18].content_store 	misses[18] 	36623
scalar tiger_cost_network.node[18].content_store 	decision_yes[18] 	377
scalar tiger_cost_network.node[18].content_store 	decision_no[18] 	36246
scalar tiger_cost_network.node[18].content_store 	decision_ratio[18] 	0.010294077492286
scalar tiger_cost_network.node[19].core_layer 	interests[19] 	15138
scalar tiger_cost_network.node[19].core_layer 	data[19] 	4270
scalar tiger_cost_network.node[19].content_store 	p_hit[19] 	0.71792839212578
scalar tiger_cost_network.node[19].content_store 	hits[19] 	10868
scalar tiger_cost_network.node[19].content_store 	misses[19] 	4270
scalar tiger_cost_network.node[19].content_store 	decision_yes[19] 	32
scalar tiger_cost_network.node[19].content_store 	decision_no[19] 	4238
scalar tiger_cost_network.node[19].content_store 	decision_ratio[19] 	0.0074941451990632
scalar tiger_cost_network.node[20].core_layer 	interests[20] 	4442
scalar tiger_cost_network.node[20].core_layer 	data[20] 	753
scalar tiger_cost_network.node[20].content_store 	p_hit[20] 	0.83048176497073
scalar tiger_cost_network.node[20].content_store 	hits[20] 	3689
scalar tiger_cost_network.node[20].content_store 	misses[20] 	753
scalar tiger_cost_network.node[20].content_store 	decision_yes[20] 	8
scalar tiger_cost_network.node[20].content_store 	decision_no[20] 	745
scalar tiger_cost_network.node[20].content_store 	decision_ratio[20] 	0.01062416998672
scalar tiger_cost_network.node[21].core_layer 	interests[21] 	14912
scalar tiger_cost_network.node[21].core_layer 	data[21] 	4898
scalar tiger_cost_network.node[21].content_store 	p_hit[21] 	0.67153969957082
scalar tiger_cost_network.node[21].content_store 	hits[21] 	10014
scalar tiger_cost_network.node[21].content_store 	misses[21] 	4898
scalar tiger_cost_network.node[21].content_store 	decision_yes[21] 	41
scalar tiger_cost_network.node[21].content_store 	decision_no[21] 	4857
scalar tiger_cost_network.node[21].content_store 	decision_ratio[21] 	0.0083707635769702
scalar tiger_cost_network.client[0] 	hdistance[0] 	2.1625721177895
scalar tiger_cost_network.client[0] 	downloads[0] 	179914
scalar tiger_cost_network.client[0] 	avg_time[0] 	0.000392176601
scalar tiger_cost_network.client[4] 	hdistance[4] 	2.1043371088543
scalar tiger_cost_network.client[4] 	downloads[4] 	179313
scalar tiger_cost_network.client[4] 	avg_time[4] 	0.000953632736
scalar tiger_cost_network.client[9] 	hdistance[9] 	2.1536374380628
scalar tiger_cost_network.client[9] 	downloads[9] 	180223
scalar tiger_cost_network.client[9] 	avg_time[9] 	0.000702231322
