version 2
run General-11-20140930-15:38:11-24981
attr D fix0.01
attr F nrr
attr R lru
attr a 1
attr configname General
attr csize 1e3
attr ctlg 1e5
attr datetime 20140930-15:38:11
attr experiment General
attr inifile omnetpp.ini
attr iterationvars "$net=tiger_cost, $rep=18, $priceratiovalue=10, $weights=0.333_0.333_0.334, $lambda=100, $a=1, $ctlg=1e5, $F=nrr, $ttl=10, $D=fix0.01, $xi=1, $R=lru, $csize=1e3, $pricebits=0, $window=60, $variance=0.05, $mytime=1800"
attr iterationvars2 "$net=tiger_cost, $rep=18, $priceratiovalue=10, $weights=0.333_0.333_0.334, $lambda=100, $a=1, $ctlg=1e5, $F=nrr, $ttl=10, $D=fix0.01, $xi=1, $R=lru, $csize=1e3, $pricebits=0, $window=60, $variance=0.05, $mytime=1800, $repetition=0"
attr lambda 100
attr measurement "$net=tiger_cost, $rep=18, $priceratiovalue=10, $weights=0.333_0.333_0.334, $lambda=100, $a=1, $ctlg=1e5, $F=nrr, $ttl=10, $D=fix0.01, $xi=1, $R=lru, $csize=1e3, $pricebits=0, $window=60, $variance=0.05, $mytime=1800"
attr mytime 1800
attr net tiger_cost
attr network networks.${net=level3_cost,tiger_cost,dtelecom_cost}_network
attr pricebits 0
attr priceratiovalue 10
attr processid 24981
attr rep 18
attr repetition 0
attr replication #0
attr resultdir results
attr runnumber 11
attr seedset 18
attr ttl 10
attr variance 0.05
attr weights 0.333_0.333_0.334
attr window 60
attr xi 1

scalar . 	a 	1
scalar . 	csize 	1e3
scalar . 	ctlg 	1e5
scalar . 	lambda 	100
scalar . 	mytime 	1800
scalar . 	pricebits 	0
scalar . 	priceratiovalue 	10
scalar . 	rep 	18
scalar . 	ttl 	10
scalar . 	variance 	0.05
scalar . 	window 	60
scalar . 	xi 	1
scalar tiger_cost_network.content_distribution 	repo-0 	13
scalar tiger_cost_network.content_distribution 	repo-1 	7
scalar tiger_cost_network.content_distribution 	repo-2 	8
scalar tiger_cost_network.content_distribution 	client-0 	5
scalar tiger_cost_network.content_distribution 	client-1 	1
scalar tiger_cost_network.content_distribution 	client-2 	16
scalar tiger_cost_network.content_distribution 	repo-0_card 	33458
scalar tiger_cost_network.content_distribution 	repo-0_price 	10
scalar tiger_cost_network.content_distribution 	repo-1_card 	33219
scalar tiger_cost_network.content_distribution 	repo-1_price 	1
scalar tiger_cost_network.content_distribution 	repo-2_card 	33323
scalar tiger_cost_network.content_distribution 	repo-2_price 	0
scalar tiger_cost_network.statistics 	repo_popularity[0] 	0.43323683832893
scalar tiger_cost_network.statistics 	repo_popularity[1] 	0.27229839117188
scalar tiger_cost_network.statistics 	repo_popularity[2] 	0.2944647704992
scalar tiger_cost_network.statistics 	stabilization_time 	36060
scalar tiger_cost_network.statistics 	p_hit 	0.19122527041062
scalar tiger_cost_network.statistics 	interests 	61009.909090909
scalar tiger_cost_network.statistics 	data 	36428.863636364
scalar tiger_cost_network.statistics 	hdistance 	2.0073552835926
scalar tiger_cost_network.statistics 	avg_time 	0.000755137607
scalar tiger_cost_network.statistics 	downloads 	540774
scalar tiger_cost_network.statistics 	total_cost 	924145
scalar tiger_cost_network.statistics 	total_replicas 	100000
scalar tiger_cost_network.statistics 	inner_hit 	0.47463265615581
scalar tiger_cost_network.node[0].core_layer 	interests[0] 	0
scalar tiger_cost_network.node[0].core_layer 	data[0] 	0
scalar tiger_cost_network.node[0].core_layer 	repo_int[0] 	284105
scalar tiger_cost_network.node[0].content_store 	p_hit[0] 	-nan
scalar tiger_cost_network.node[0].content_store 	hits[0] 	0
scalar tiger_cost_network.node[0].content_store 	misses[0] 	0
scalar tiger_cost_network.node[0].content_store 	decision_yes[0] 	0
scalar tiger_cost_network.node[0].content_store 	decision_no[0] 	0
scalar tiger_cost_network.node[0].content_store 	decision_ratio[0] 	0
scalar tiger_cost_network.node[1].core_layer 	interests[1] 	180680
scalar tiger_cost_network.node[1].core_layer 	data[1] 	120249
scalar tiger_cost_network.node[1].content_store 	p_hit[1] 	0.33445317688731
scalar tiger_cost_network.node[1].content_store 	hits[1] 	60429
scalar tiger_cost_network.node[1].content_store 	misses[1] 	120251
scalar tiger_cost_network.node[1].content_store 	decision_yes[1] 	1180
scalar tiger_cost_network.node[1].content_store 	decision_no[1] 	119069
scalar tiger_cost_network.node[1].content_store 	decision_ratio[1] 	0.0098129714176417
scalar tiger_cost_network.node[2].core_layer 	interests[2] 	71988
scalar tiger_cost_network.node[2].core_layer 	data[2] 	65108
scalar tiger_cost_network.node[2].content_store 	p_hit[2] 	0.095571484136245
scalar tiger_cost_network.node[2].content_store 	hits[2] 	6880
scalar tiger_cost_network.node[2].content_store 	misses[2] 	65108
scalar tiger_cost_network.node[2].content_store 	decision_yes[2] 	653
scalar tiger_cost_network.node[2].content_store 	decision_no[2] 	64455
scalar tiger_cost_network.node[2].content_store 	decision_ratio[2] 	0.01002948946366
scalar tiger_cost_network.node[3].core_layer 	interests[3] 	43966
scalar tiger_cost_network.node[3].core_layer 	data[3] 	36875
scalar tiger_cost_network.node[3].content_store 	p_hit[3] 	0.16128371923759
scalar tiger_cost_network.node[3].content_store 	hits[3] 	7091
scalar tiger_cost_network.node[3].content_store 	misses[3] 	36875
scalar tiger_cost_network.node[3].content_store 	decision_yes[3] 	373
scalar tiger_cost_network.node[3].content_store 	decision_no[3] 	36502
scalar tiger_cost_network.node[3].content_store 	decision_ratio[3] 	0.010115254237288
scalar tiger_cost_network.node[4].core_layer 	interests[4] 	49752
scalar tiger_cost_network.node[4].core_layer 	data[4] 	36076
scalar tiger_cost_network.node[4].content_store 	p_hit[4] 	0.27488342177199
scalar tiger_cost_network.node[4].content_store 	hits[4] 	13676
scalar tiger_cost_network.node[4].content_store 	misses[4] 	36076
scalar tiger_cost_network.node[4].content_store 	decision_yes[4] 	377
scalar tiger_cost_network.node[4].content_store 	decision_no[4] 	35699
scalar tiger_cost_network.node[4].content_store 	decision_ratio[4] 	0.010450160771704
scalar tiger_cost_network.node[5].core_layer 	interests[5] 	185676
scalar tiger_cost_network.node[5].core_layer 	data[5] 	119715
scalar tiger_cost_network.node[5].content_store 	p_hit[5] 	0.35522630819277
scalar tiger_cost_network.node[5].content_store 	hits[5] 	65957
scalar tiger_cost_network.node[5].content_store 	misses[5] 	119719
scalar tiger_cost_network.node[5].content_store 	decision_yes[5] 	1176
scalar tiger_cost_network.node[5].content_store 	decision_no[5] 	118539
scalar tiger_cost_network.node[5].content_store 	decision_ratio[5] 	0.0098233304097231
scalar tiger_cost_network.node[6].core_layer 	interests[6] 	148354
scalar tiger_cost_network.node[6].core_layer 	data[6] 	138482
scalar tiger_cost_network.node[6].content_store 	p_hit[6] 	0.066523315852623
scalar tiger_cost_network.node[6].content_store 	hits[6] 	9869
scalar tiger_cost_network.node[6].content_store 	misses[6] 	138485
scalar tiger_cost_network.node[6].content_store 	decision_yes[6] 	1377
scalar tiger_cost_network.node[6].content_store 	decision_no[6] 	137105
scalar tiger_cost_network.node[6].content_store 	decision_ratio[6] 	0.0099435305671495
scalar tiger_cost_network.node[7].core_layer 	interests[7] 	177113
scalar tiger_cost_network.node[7].core_layer 	repo_load[7] 	103305
scalar tiger_cost_network.node[7].core_layer 	data[7] 	66380
scalar tiger_cost_network.node[7].content_store 	p_hit[7] 	0.041939326870416
scalar tiger_cost_network.node[7].content_store 	hits[7] 	7428
scalar tiger_cost_network.node[7].content_store 	misses[7] 	169685
scalar tiger_cost_network.node[7].content_store 	decision_yes[7] 	1666
scalar tiger_cost_network.node[7].content_store 	decision_no[7] 	168019
scalar tiger_cost_network.node[7].content_store 	decision_ratio[7] 	0.0098181925332233
scalar tiger_cost_network.node[8].core_layer 	interests[8] 	145625
scalar tiger_cost_network.node[8].core_layer 	repo_load[8] 	98716
scalar tiger_cost_network.node[8].core_layer 	data[8] 	38631
scalar tiger_cost_network.node[8].content_store 	p_hit[8] 	0.056844635193133
scalar tiger_cost_network.node[8].content_store 	hits[8] 	8278
scalar tiger_cost_network.node[8].content_store 	misses[8] 	137347
scalar tiger_cost_network.node[8].content_store 	decision_yes[8] 	1443
scalar tiger_cost_network.node[8].content_store 	decision_no[8] 	135904
scalar tiger_cost_network.node[8].content_store 	decision_ratio[8] 	0.01050623602991
scalar tiger_cost_network.node[9].core_layer 	interests[9] 	0
scalar tiger_cost_network.node[9].core_layer 	data[9] 	0
scalar tiger_cost_network.node[9].content_store 	p_hit[9] 	-nan
scalar tiger_cost_network.node[9].content_store 	hits[9] 	0
scalar tiger_cost_network.node[9].content_store 	misses[9] 	0
scalar tiger_cost_network.node[9].content_store 	decision_yes[9] 	0
scalar tiger_cost_network.node[9].content_store 	decision_no[9] 	0
scalar tiger_cost_network.node[9].content_store 	decision_ratio[9] 	0
scalar tiger_cost_network.node[10].core_layer 	interests[10] 	0
scalar tiger_cost_network.node[10].core_layer 	data[10] 	0
scalar tiger_cost_network.node[10].content_store 	p_hit[10] 	-nan
scalar tiger_cost_network.node[10].content_store 	hits[10] 	0
scalar tiger_cost_network.node[10].content_store 	misses[10] 	0
scalar tiger_cost_network.node[10].content_store 	decision_yes[10] 	0
scalar tiger_cost_network.node[10].content_store 	decision_no[10] 	0
scalar tiger_cost_network.node[10].content_store 	decision_ratio[10] 	0
scalar tiger_cost_network.node[11].core_layer 	interests[11] 	0
scalar tiger_cost_network.node[11].core_layer 	data[11] 	0
scalar tiger_cost_network.node[11].content_store 	p_hit[11] 	-nan
scalar tiger_cost_network.node[11].content_store 	hits[11] 	0
scalar tiger_cost_network.node[11].content_store 	misses[11] 	0
scalar tiger_cost_network.node[11].content_store 	decision_yes[11] 	0
scalar tiger_cost_network.node[11].content_store 	decision_no[11] 	0
scalar tiger_cost_network.node[11].content_store 	decision_ratio[11] 	0
scalar tiger_cost_network.node[12].core_layer 	interests[12] 	0
scalar tiger_cost_network.node[12].core_layer 	data[12] 	0
scalar tiger_cost_network.node[12].content_store 	p_hit[12] 	-nan
scalar tiger_cost_network.node[12].content_store 	hits[12] 	0
scalar tiger_cost_network.node[12].content_store 	misses[12] 	0
scalar tiger_cost_network.node[12].content_store 	decision_yes[12] 	0
scalar tiger_cost_network.node[12].content_store 	decision_no[12] 	0
scalar tiger_cost_network.node[12].content_store 	decision_ratio[12] 	0
scalar tiger_cost_network.node[13].core_layer 	interests[13] 	84631
scalar tiger_cost_network.node[13].core_layer 	repo_load[13] 	82084
scalar tiger_cost_network.node[13].core_layer 	data[13] 	0
scalar tiger_cost_network.node[13].content_store 	p_hit[13] 	0.030095355129917
scalar tiger_cost_network.node[13].content_store 	hits[13] 	2547
scalar tiger_cost_network.node[13].content_store 	misses[13] 	82084
scalar tiger_cost_network.node[13].content_store 	decision_yes[13] 	864
scalar tiger_cost_network.node[13].content_store 	decision_no[13] 	81220
scalar tiger_cost_network.node[13].content_store 	decision_ratio[13] 	0.010525802836119
scalar tiger_cost_network.node[14].core_layer 	interests[14] 	30745
scalar tiger_cost_network.node[14].core_layer 	data[14] 	28069
scalar tiger_cost_network.node[14].content_store 	p_hit[14] 	0.087038542852496
scalar tiger_cost_network.node[14].content_store 	hits[14] 	2676
scalar tiger_cost_network.node[14].content_store 	misses[14] 	28069
scalar tiger_cost_network.node[14].content_store 	decision_yes[14] 	273
scalar tiger_cost_network.node[14].content_store 	decision_no[14] 	27796
scalar tiger_cost_network.node[14].content_store 	decision_ratio[14] 	0.0097260322776016
scalar tiger_cost_network.node[15].core_layer 	interests[15] 	34804
scalar tiger_cost_network.node[15].core_layer 	data[15] 	28971
scalar tiger_cost_network.node[15].content_store 	p_hit[15] 	0.16759567865763
scalar tiger_cost_network.node[15].content_store 	hits[15] 	5833
scalar tiger_cost_network.node[15].content_store 	misses[15] 	28971
scalar tiger_cost_network.node[15].content_store 	decision_yes[15] 	295
scalar tiger_cost_network.node[15].content_store 	decision_no[15] 	28676
scalar tiger_cost_network.node[15].content_store 	decision_ratio[15] 	0.010182596389493
scalar tiger_cost_network.node[16].core_layer 	interests[16] 	188884
scalar tiger_cost_network.node[16].core_layer 	data[16] 	122879
scalar tiger_cost_network.node[16].content_store 	p_hit[16] 	0.34943139704792
scalar tiger_cost_network.node[16].content_store 	hits[16] 	66002
scalar tiger_cost_network.node[16].content_store 	misses[16] 	122882
scalar tiger_cost_network.node[16].content_store 	decision_yes[16] 	1269
scalar tiger_cost_network.node[16].content_store 	decision_no[16] 	121610
scalar tiger_cost_network.node[16].content_store 	decision_ratio[16] 	0.010327232480733
scalar tiger_cost_network.node[17].core_layer 	interests[17] 	0
scalar tiger_cost_network.node[17].core_layer 	data[17] 	0
scalar tiger_cost_network.node[17].content_store 	p_hit[17] 	-nan
scalar tiger_cost_network.node[17].content_store 	hits[17] 	0
scalar tiger_cost_network.node[17].content_store 	misses[17] 	0
scalar tiger_cost_network.node[17].content_store 	decision_yes[17] 	0
scalar tiger_cost_network.node[17].content_store 	decision_no[17] 	0
scalar tiger_cost_network.node[17].content_store 	decision_ratio[17] 	0
scalar tiger_cost_network.node[18].core_layer 	interests[18] 	0
scalar tiger_cost_network.node[18].core_layer 	data[18] 	0
scalar tiger_cost_network.node[18].content_store 	p_hit[18] 	-nan
scalar tiger_cost_network.node[18].content_store 	hits[18] 	0
scalar tiger_cost_network.node[18].content_store 	misses[18] 	0
scalar tiger_cost_network.node[18].content_store 	decision_yes[18] 	0
scalar tiger_cost_network.node[18].content_store 	decision_no[18] 	0
scalar tiger_cost_network.node[18].content_store 	decision_ratio[18] 	0
scalar tiger_cost_network.node[19].core_layer 	interests[19] 	0
scalar tiger_cost_network.node[19].core_layer 	data[19] 	0
scalar tiger_cost_network.node[19].content_store 	p_hit[19] 	-nan
scalar tiger_cost_network.node[19].content_store 	hits[19] 	0
scalar tiger_cost_network.node[19].content_store 	misses[19] 	0
scalar tiger_cost_network.node[19].content_store 	decision_yes[19] 	0
scalar tiger_cost_network.node[19].content_store 	decision_no[19] 	0
scalar tiger_cost_network.node[19].content_store 	decision_ratio[19] 	0
scalar tiger_cost_network.node[20].core_layer 	interests[20] 	0
scalar tiger_cost_network.node[20].core_layer 	data[20] 	0
scalar tiger_cost_network.node[20].content_store 	p_hit[20] 	-nan
scalar tiger_cost_network.node[20].content_store 	hits[20] 	0
scalar tiger_cost_network.node[20].content_store 	misses[20] 	0
scalar tiger_cost_network.node[20].content_store 	decision_yes[20] 	0
scalar tiger_cost_network.node[20].content_store 	decision_no[20] 	0
scalar tiger_cost_network.node[20].content_store 	decision_ratio[20] 	0
scalar tiger_cost_network.node[21].core_layer 	interests[21] 	0
scalar tiger_cost_network.node[21].core_layer 	data[21] 	0
scalar tiger_cost_network.node[21].content_store 	p_hit[21] 	-nan
scalar tiger_cost_network.node[21].content_store 	hits[21] 	0
scalar tiger_cost_network.node[21].content_store 	misses[21] 	0
scalar tiger_cost_network.node[21].content_store 	decision_yes[21] 	0
scalar tiger_cost_network.node[21].content_store 	decision_no[21] 	0
scalar tiger_cost_network.node[21].content_store 	decision_ratio[21] 	0
scalar tiger_cost_network.client[1] 	hdistance[1] 	1.6638022019531
scalar tiger_cost_network.client[1] 	downloads[1] 	180022
scalar tiger_cost_network.client[1] 	avg_time[1] 	0.000568372432
scalar tiger_cost_network.client[5] 	hdistance[5] 	2.2634254881237
scalar tiger_cost_network.client[5] 	downloads[5] 	179770
scalar tiger_cost_network.client[5] 	avg_time[5] 	0.001123550301
scalar tiger_cost_network.client[16] 	hdistance[16] 	2.094838160701
scalar tiger_cost_network.client[16] 	downloads[16] 	180982
scalar tiger_cost_network.client[16] 	avg_time[16] 	0.000573490088
