version 2
run General-11-20140930-15:35:38-19620
attr D fix0.01
attr F nrr
attr R lru
attr a 1
attr configname General
attr csize 1e3
attr ctlg 1e5
attr datetime 20140930-15:35:38
attr experiment General
attr inifile omnetpp.ini
attr iterationvars "$net=tiger_cost, $rep=14, $priceratiovalue=10, $weights=0.333_0.333_0.334, $lambda=100, $a=1, $ctlg=1e5, $F=nrr, $ttl=10, $D=fix0.01, $xi=1, $R=lru, $csize=1e3, $pricebits=0, $window=60, $variance=0.05, $mytime=1800"
attr iterationvars2 "$net=tiger_cost, $rep=14, $priceratiovalue=10, $weights=0.333_0.333_0.334, $lambda=100, $a=1, $ctlg=1e5, $F=nrr, $ttl=10, $D=fix0.01, $xi=1, $R=lru, $csize=1e3, $pricebits=0, $window=60, $variance=0.05, $mytime=1800, $repetition=0"
attr lambda 100
attr measurement "$net=tiger_cost, $rep=14, $priceratiovalue=10, $weights=0.333_0.333_0.334, $lambda=100, $a=1, $ctlg=1e5, $F=nrr, $ttl=10, $D=fix0.01, $xi=1, $R=lru, $csize=1e3, $pricebits=0, $window=60, $variance=0.05, $mytime=1800"
attr mytime 1800
attr net tiger_cost
attr network networks.${net=level3_cost,tiger_cost,dtelecom_cost}_network
attr pricebits 0
attr priceratiovalue 10
attr processid 19620
attr rep 14
attr repetition 0
attr replication #0
attr resultdir results
attr runnumber 11
attr seedset 14
attr ttl 10
attr variance 0.05
attr weights 0.333_0.333_0.334
attr window 60
attr xi 1

scalar . 	a 	1
scalar . 	csize 	1e3
scalar . 	ctlg 	1e5
scalar . 	lambda 	100
scalar . 	mytime 	1800
scalar . 	pricebits 	0
scalar . 	priceratiovalue 	10
scalar . 	rep 	14
scalar . 	ttl 	10
scalar . 	variance 	0.05
scalar . 	window 	60
scalar . 	xi 	1
scalar tiger_cost_network.content_distribution 	repo-0 	4
scalar tiger_cost_network.content_distribution 	repo-1 	0
scalar tiger_cost_network.content_distribution 	repo-2 	17
scalar tiger_cost_network.content_distribution 	client-0 	16
scalar tiger_cost_network.content_distribution 	client-1 	19
scalar tiger_cost_network.content_distribution 	client-2 	17
scalar tiger_cost_network.content_distribution 	repo-0_card 	32960
scalar tiger_cost_network.content_distribution 	repo-0_price 	10
scalar tiger_cost_network.content_distribution 	repo-1_card 	33557
scalar tiger_cost_network.content_distribution 	repo-1_price 	1
scalar tiger_cost_network.content_distribution 	repo-2_card 	33483
scalar tiger_cost_network.content_distribution 	repo-2_price 	0
scalar tiger_cost_network.statistics 	repo_popularity[0] 	0.30774250677815
scalar tiger_cost_network.statistics 	repo_popularity[1] 	0.28614157627629
scalar tiger_cost_network.statistics 	repo_popularity[2] 	0.40611591694558
scalar tiger_cost_network.statistics 	stabilization_time 	36060
scalar tiger_cost_network.statistics 	p_hit 	0.21074846050215
scalar tiger_cost_network.statistics 	interests 	49226.5
scalar tiger_cost_network.statistics 	data 	24653.772727273
scalar tiger_cost_network.statistics 	hdistance 	1.5810250528451
scalar tiger_cost_network.statistics 	avg_time 	0.000206194742
scalar tiger_cost_network.statistics 	downloads 	540598
scalar tiger_cost_network.statistics 	total_cost 	1046515
scalar tiger_cost_network.statistics 	total_replicas 	100000
scalar tiger_cost_network.statistics 	inner_hit 	0.42219357082342
scalar tiger_cost_network.node[0].core_layer 	interests[0] 	103697
scalar tiger_cost_network.node[0].core_layer 	repo_load[0] 	95395
scalar tiger_cost_network.node[0].core_layer 	data[0] 	0
scalar tiger_cost_network.node[0].core_layer 	repo_int[0] 	312361
scalar tiger_cost_network.node[0].content_store 	p_hit[0] 	0.080060175318476
scalar tiger_cost_network.node[0].content_store 	hits[0] 	8302
scalar tiger_cost_network.node[0].content_store 	misses[0] 	95395
scalar tiger_cost_network.node[0].content_store 	decision_yes[0] 	945
scalar tiger_cost_network.node[0].content_store 	decision_no[0] 	94450
scalar tiger_cost_network.node[0].content_store 	decision_ratio[0] 	0.0099061795691598
scalar tiger_cost_network.node[1].core_layer 	interests[1] 	0
scalar tiger_cost_network.node[1].core_layer 	data[1] 	0
scalar tiger_cost_network.node[1].content_store 	p_hit[1] 	-nan
scalar tiger_cost_network.node[1].content_store 	hits[1] 	0
scalar tiger_cost_network.node[1].content_store 	misses[1] 	0
scalar tiger_cost_network.node[1].content_store 	decision_yes[1] 	0
scalar tiger_cost_network.node[1].content_store 	decision_no[1] 	0
scalar tiger_cost_network.node[1].content_store 	decision_ratio[1] 	0
scalar tiger_cost_network.node[2].core_layer 	interests[2] 	0
scalar tiger_cost_network.node[2].core_layer 	data[2] 	0
scalar tiger_cost_network.node[2].content_store 	p_hit[2] 	-nan
scalar tiger_cost_network.node[2].content_store 	hits[2] 	0
scalar tiger_cost_network.node[2].content_store 	misses[2] 	0
scalar tiger_cost_network.node[2].content_store 	decision_yes[2] 	0
scalar tiger_cost_network.node[2].content_store 	decision_no[2] 	0
scalar tiger_cost_network.node[2].content_store 	decision_ratio[2] 	0
scalar tiger_cost_network.node[3].core_layer 	interests[3] 	0
scalar tiger_cost_network.node[3].core_layer 	data[3] 	0
scalar tiger_cost_network.node[3].content_store 	p_hit[3] 	-nan
scalar tiger_cost_network.node[3].content_store 	hits[3] 	0
scalar tiger_cost_network.node[3].content_store 	misses[3] 	0
scalar tiger_cost_network.node[3].content_store 	decision_yes[3] 	0
scalar tiger_cost_network.node[3].content_store 	decision_no[3] 	0
scalar tiger_cost_network.node[3].content_store 	decision_ratio[3] 	0
scalar tiger_cost_network.node[4].core_layer 	interests[4] 	104881
scalar tiger_cost_network.node[4].core_layer 	repo_load[4] 	95112
scalar tiger_cost_network.node[4].core_layer 	data[4] 	0
scalar tiger_cost_network.node[4].content_store 	p_hit[4] 	0.093143658050553
scalar tiger_cost_network.node[4].content_store 	hits[4] 	9769
scalar tiger_cost_network.node[4].content_store 	misses[4] 	95112
scalar tiger_cost_network.node[4].content_store 	decision_yes[4] 	961
scalar tiger_cost_network.node[4].content_store 	decision_no[4] 	94151
scalar tiger_cost_network.node[4].content_store 	decision_ratio[4] 	0.010103877533855
scalar tiger_cost_network.node[5].core_layer 	interests[5] 	0
scalar tiger_cost_network.node[5].core_layer 	data[5] 	0
scalar tiger_cost_network.node[5].content_store 	p_hit[5] 	-nan
scalar tiger_cost_network.node[5].content_store 	hits[5] 	0
scalar tiger_cost_network.node[5].content_store 	misses[5] 	0
scalar tiger_cost_network.node[5].content_store 	decision_yes[5] 	0
scalar tiger_cost_network.node[5].content_store 	decision_no[5] 	0
scalar tiger_cost_network.node[5].content_store 	decision_ratio[5] 	0
scalar tiger_cost_network.node[6].core_layer 	interests[6] 	0
scalar tiger_cost_network.node[6].core_layer 	data[6] 	0
scalar tiger_cost_network.node[6].content_store 	p_hit[6] 	-nan
scalar tiger_cost_network.node[6].content_store 	hits[6] 	0
scalar tiger_cost_network.node[6].content_store 	misses[6] 	0
scalar tiger_cost_network.node[6].content_store 	decision_yes[6] 	0
scalar tiger_cost_network.node[6].content_store 	decision_no[6] 	0
scalar tiger_cost_network.node[6].content_store 	decision_ratio[6] 	0
scalar tiger_cost_network.node[7].core_layer 	interests[7] 	0
scalar tiger_cost_network.node[7].core_layer 	data[7] 	0
scalar tiger_cost_network.node[7].content_store 	p_hit[7] 	-nan
scalar tiger_cost_network.node[7].content_store 	hits[7] 	0
scalar tiger_cost_network.node[7].content_store 	misses[7] 	0
scalar tiger_cost_network.node[7].content_store 	decision_yes[7] 	0
scalar tiger_cost_network.node[7].content_store 	decision_no[7] 	0
scalar tiger_cost_network.node[7].content_store 	decision_ratio[7] 	0
scalar tiger_cost_network.node[8].core_layer 	interests[8] 	0
scalar tiger_cost_network.node[8].core_layer 	data[8] 	0
scalar tiger_cost_network.node[8].content_store 	p_hit[8] 	-nan
scalar tiger_cost_network.node[8].content_store 	hits[8] 	0
scalar tiger_cost_network.node[8].content_store 	misses[8] 	0
scalar tiger_cost_network.node[8].content_store 	decision_yes[8] 	0
scalar tiger_cost_network.node[8].content_store 	decision_no[8] 	0
scalar tiger_cost_network.node[8].content_store 	decision_ratio[8] 	0
scalar tiger_cost_network.node[9].core_layer 	interests[9] 	0
scalar tiger_cost_network.node[9].core_layer 	data[9] 	0
scalar tiger_cost_network.node[9].content_store 	p_hit[9] 	-nan
scalar tiger_cost_network.node[9].content_store 	hits[9] 	0
scalar tiger_cost_network.node[9].content_store 	misses[9] 	0
scalar tiger_cost_network.node[9].content_store 	decision_yes[9] 	0
scalar tiger_cost_network.node[9].content_store 	decision_no[9] 	0
scalar tiger_cost_network.node[9].content_store 	decision_ratio[9] 	0
scalar tiger_cost_network.node[10].core_layer 	interests[10] 	0
scalar tiger_cost_network.node[10].core_layer 	data[10] 	0
scalar tiger_cost_network.node[10].content_store 	p_hit[10] 	-nan
scalar tiger_cost_network.node[10].content_store 	hits[10] 	0
scalar tiger_cost_network.node[10].content_store 	misses[10] 	0
scalar tiger_cost_network.node[10].content_store 	decision_yes[10] 	0
scalar tiger_cost_network.node[10].content_store 	decision_no[10] 	0
scalar tiger_cost_network.node[10].content_store 	decision_ratio[10] 	0
scalar tiger_cost_network.node[11].core_layer 	interests[11] 	0
scalar tiger_cost_network.node[11].core_layer 	data[11] 	0
scalar tiger_cost_network.node[11].content_store 	p_hit[11] 	-nan
scalar tiger_cost_network.node[11].content_store 	hits[11] 	0
scalar tiger_cost_network.node[11].content_store 	misses[11] 	0
scalar tiger_cost_network.node[11].content_store 	decision_yes[11] 	0
scalar tiger_cost_network.node[11].content_store 	decision_no[11] 	0
scalar tiger_cost_network.node[11].content_store 	decision_ratio[11] 	0
scalar tiger_cost_network.node[12].core_layer 	interests[12] 	0
scalar tiger_cost_network.node[12].core_layer 	data[12] 	0
scalar tiger_cost_network.node[12].content_store 	p_hit[12] 	-nan
scalar tiger_cost_network.node[12].content_store 	hits[12] 	0
scalar tiger_cost_network.node[12].content_store 	misses[12] 	0
scalar tiger_cost_network.node[12].content_store 	decision_yes[12] 	0
scalar tiger_cost_network.node[12].content_store 	decision_no[12] 	0
scalar tiger_cost_network.node[12].content_store 	decision_ratio[12] 	0
scalar tiger_cost_network.node[13].core_layer 	interests[13] 	0
scalar tiger_cost_network.node[13].core_layer 	data[13] 	0
scalar tiger_cost_network.node[13].content_store 	p_hit[13] 	-nan
scalar tiger_cost_network.node[13].content_store 	hits[13] 	0
scalar tiger_cost_network.node[13].content_store 	misses[13] 	0
scalar tiger_cost_network.node[13].content_store 	decision_yes[13] 	0
scalar tiger_cost_network.node[13].content_store 	decision_no[13] 	0
scalar tiger_cost_network.node[13].content_store 	decision_ratio[13] 	0
scalar tiger_cost_network.node[14].core_layer 	interests[14] 	0
scalar tiger_cost_network.node[14].core_layer 	data[14] 	0
scalar tiger_cost_network.node[14].content_store 	p_hit[14] 	-nan
scalar tiger_cost_network.node[14].content_store 	hits[14] 	0
scalar tiger_cost_network.node[14].content_store 	misses[14] 	0
scalar tiger_cost_network.node[14].content_store 	decision_yes[14] 	0
scalar tiger_cost_network.node[14].content_store 	decision_no[14] 	0
scalar tiger_cost_network.node[14].content_store 	decision_ratio[14] 	0
scalar tiger_cost_network.node[15].core_layer 	interests[15] 	0
scalar tiger_cost_network.node[15].core_layer 	data[15] 	0
scalar tiger_cost_network.node[15].content_store 	p_hit[15] 	-nan
scalar tiger_cost_network.node[15].content_store 	hits[15] 	0
scalar tiger_cost_network.node[15].content_store 	misses[15] 	0
scalar tiger_cost_network.node[15].content_store 	decision_yes[15] 	0
scalar tiger_cost_network.node[15].content_store 	decision_no[15] 	0
scalar tiger_cost_network.node[15].content_store 	decision_ratio[15] 	0
scalar tiger_cost_network.node[16].core_layer 	interests[16] 	188456
scalar tiger_cost_network.node[16].core_layer 	data[16] 	119303
scalar tiger_cost_network.node[16].content_store 	p_hit[16] 	0.36693445684934
scalar tiger_cost_network.node[16].content_store 	hits[16] 	69151
scalar tiger_cost_network.node[16].content_store 	misses[16] 	119305
scalar tiger_cost_network.node[16].content_store 	decision_yes[16] 	1203
scalar tiger_cost_network.node[16].content_store 	decision_no[16] 	118100
scalar tiger_cost_network.node[16].content_store 	decision_ratio[16] 	0.010083568728364
scalar tiger_cost_network.node[17].core_layer 	interests[17] 	342249
scalar tiger_cost_network.node[17].core_layer 	repo_load[17] 	121854
scalar tiger_cost_network.node[17].core_layer 	data[17] 	155941
scalar tiger_cost_network.node[17].content_store 	p_hit[17] 	0.18832487457962
scalar tiger_cost_network.node[17].content_store 	hits[17] 	64454
scalar tiger_cost_network.node[17].content_store 	misses[17] 	277795
scalar tiger_cost_network.node[17].content_store 	decision_yes[17] 	2708
scalar tiger_cost_network.node[17].content_store 	decision_no[17] 	275087
scalar tiger_cost_network.node[17].content_store 	decision_ratio[17] 	0.0097481956118721
scalar tiger_cost_network.node[18].core_layer 	interests[18] 	161966
scalar tiger_cost_network.node[18].core_layer 	data[18] 	146821
scalar tiger_cost_network.node[18].content_store 	p_hit[18] 	0.093507279305533
scalar tiger_cost_network.node[18].content_store 	hits[18] 	15145
scalar tiger_cost_network.node[18].content_store 	misses[18] 	146821
scalar tiger_cost_network.node[18].content_store 	decision_yes[18] 	1512
scalar tiger_cost_network.node[18].content_store 	decision_no[18] 	145309
scalar tiger_cost_network.node[18].content_store 	decision_ratio[18] 	0.010298254336914
scalar tiger_cost_network.node[19].core_layer 	interests[19] 	181734
scalar tiger_cost_network.node[19].core_layer 	data[19] 	120318
scalar tiger_cost_network.node[19].content_store 	p_hit[19] 	0.33794446828882
scalar tiger_cost_network.node[19].content_store 	hits[19] 	61416
scalar tiger_cost_network.node[19].content_store 	misses[19] 	120318
scalar tiger_cost_network.node[19].content_store 	decision_yes[19] 	1229
scalar tiger_cost_network.node[19].content_store 	decision_no[19] 	119089
scalar tiger_cost_network.node[19].content_store 	decision_ratio[19] 	0.010214597982014
scalar tiger_cost_network.node[20].core_layer 	interests[20] 	0
scalar tiger_cost_network.node[20].core_layer 	data[20] 	0
scalar tiger_cost_network.node[20].content_store 	p_hit[20] 	-nan
scalar tiger_cost_network.node[20].content_store 	hits[20] 	0
scalar tiger_cost_network.node[20].content_store 	misses[20] 	0
scalar tiger_cost_network.node[20].content_store 	decision_yes[20] 	0
scalar tiger_cost_network.node[20].content_store 	decision_no[20] 	0
scalar tiger_cost_network.node[20].content_store 	decision_ratio[20] 	0
scalar tiger_cost_network.node[21].core_layer 	interests[21] 	0
scalar tiger_cost_network.node[21].core_layer 	data[21] 	0
scalar tiger_cost_network.node[21].content_store 	p_hit[21] 	-nan
scalar tiger_cost_network.node[21].content_store 	hits[21] 	0
scalar tiger_cost_network.node[21].content_store 	misses[21] 	0
scalar tiger_cost_network.node[21].content_store 	decision_yes[21] 	0
scalar tiger_cost_network.node[21].content_store 	decision_no[21] 	0
scalar tiger_cost_network.node[21].content_store 	decision_ratio[21] 	0
scalar tiger_cost_network.client[16] 	hdistance[16] 	1.6409084337081
scalar tiger_cost_network.client[16] 	downloads[16] 	179826
scalar tiger_cost_network.client[16] 	avg_time[16] 	0.000209544062
scalar tiger_cost_network.client[17] 	hdistance[17] 	1.2343366877101
scalar tiger_cost_network.client[17] 	downloads[17] 	180262
scalar tiger_cost_network.client[17] 	avg_time[17] 	0.000198692872
scalar tiger_cost_network.client[19] 	hdistance[19] 	1.8678300371171
scalar tiger_cost_network.client[19] 	downloads[19] 	180510
scalar tiger_cost_network.client[19] 	avg_time[19] 	0.000210347294
