version 2
run General-31-20140908-18:00:38-16987
attr D fix0.01
attr F nrr
attr R lru
attr a 1
attr configname General
attr csize 1e3
attr ctlg 1e5
attr datetime 20140908-18:00:38
attr experiment General
attr inifile omnetpp.ini
attr iterationvars "$net=tiger_cost, $rep=20, $priceratiovalue=10, $weights=0.333_0.333_0.334, $lambda=100, $a=1, $ctlg=1e5, $F=nrr, $ttl=10, $D=fix0.01, $xi=1, $R=lru, $csize=1e3, $pricebits=0, $window=60, $variance=0.05, $mytime=1800"
attr iterationvars2 "$net=tiger_cost, $rep=20, $priceratiovalue=10, $weights=0.333_0.333_0.334, $lambda=100, $a=1, $ctlg=1e5, $F=nrr, $ttl=10, $D=fix0.01, $xi=1, $R=lru, $csize=1e3, $pricebits=0, $window=60, $variance=0.05, $mytime=1800, $repetition=0"
attr lambda 100
attr measurement "$net=tiger_cost, $rep=20, $priceratiovalue=10, $weights=0.333_0.333_0.334, $lambda=100, $a=1, $ctlg=1e5, $F=nrr, $ttl=10, $D=fix0.01, $xi=1, $R=lru, $csize=1e3, $pricebits=0, $window=60, $variance=0.05, $mytime=1800"
attr mytime 1800
attr net tiger_cost
attr network networks.${net=level3_cost,tiger_cost,dtelecom_cost}_network
attr pricebits 0
attr priceratiovalue 10
attr processid 16987
attr rep 20
attr repetition 0
attr replication #0
attr resultdir results
attr runnumber 31
attr seedset 20
attr ttl 10
attr variance 0.05
attr weights 0.333_0.333_0.334
attr window 60
attr xi 1

scalar . 	a 	1
scalar . 	csize 	1e3
scalar . 	ctlg 	1e5
scalar . 	lambda 	100
scalar . 	mytime 	1800
scalar . 	pricebits 	0
scalar . 	priceratiovalue 	10
scalar . 	rep 	20
scalar . 	ttl 	10
scalar . 	variance 	0.05
scalar . 	window 	60
scalar . 	xi 	1
scalar tiger_cost_network.content_distribution 	repo-0 	3
scalar tiger_cost_network.content_distribution 	repo-1 	18
scalar tiger_cost_network.content_distribution 	repo-2 	2
scalar tiger_cost_network.content_distribution 	client-0 	15
scalar tiger_cost_network.content_distribution 	client-1 	2
scalar tiger_cost_network.content_distribution 	client-2 	10
scalar tiger_cost_network.content_distribution 	repo-0_card 	33323
scalar tiger_cost_network.content_distribution 	repo-0_price 	0
scalar tiger_cost_network.content_distribution 	repo-1_card 	33295
scalar tiger_cost_network.content_distribution 	repo-1_price 	1
scalar tiger_cost_network.content_distribution 	repo-2_card 	33382
scalar tiger_cost_network.content_distribution 	repo-2_price 	10
scalar tiger_cost_network.statistics 	repo_popularity[0] 	0.32913833141561
scalar tiger_cost_network.statistics 	repo_popularity[1] 	0.36392115774491
scalar tiger_cost_network.statistics 	repo_popularity[2] 	0.3069405108395
scalar tiger_cost_network.statistics 	stabilization_time 	36060
scalar tiger_cost_network.statistics 	p_hit 	0.19980113311323
scalar tiger_cost_network.statistics 	interests 	55221.954545455
scalar tiger_cost_network.statistics 	data 	30621.681818182
scalar tiger_cost_network.statistics 	hdistance 	1.7963667745181
scalar tiger_cost_network.statistics 	avg_time 	0.000461655764
scalar tiger_cost_network.statistics 	downloads 	541200
scalar tiger_cost_network.statistics 	total_cost 	1226635
scalar tiger_cost_network.statistics 	total_replicas 	100000
scalar tiger_cost_network.statistics 	inner_hit 	0.4485162601626
scalar tiger_cost_network.statistics 	interests_sent 	541206
scalar tiger_cost_network.node[0].core_layer 	interests[0] 	57160
scalar tiger_cost_network.node[0].core_layer 	data[0] 	54822
scalar tiger_cost_network.node[0].core_layer 	repo_int[0] 	298463
scalar tiger_cost_network.node[0].content_store 	p_hit[0] 	0.040902729181246
scalar tiger_cost_network.node[0].content_store 	hits[0] 	2338
scalar tiger_cost_network.node[0].content_store 	misses[0] 	54822
scalar tiger_cost_network.node[0].content_store 	decision_yes[0] 	514
scalar tiger_cost_network.node[0].content_store 	decision_no[0] 	54308
scalar tiger_cost_network.node[0].content_store 	decision_ratio[0] 	0.0093757980372843
scalar tiger_cost_network.node[1].core_layer 	interests[1] 	94610
scalar tiger_cost_network.node[1].core_layer 	data[1] 	79196
scalar tiger_cost_network.node[1].content_store 	p_hit[1] 	0.16292146707536
scalar tiger_cost_network.node[1].content_store 	hits[1] 	15414
scalar tiger_cost_network.node[1].content_store 	misses[1] 	79196
scalar tiger_cost_network.node[1].content_store 	decision_yes[1] 	807
scalar tiger_cost_network.node[1].content_store 	decision_no[1] 	78389
scalar tiger_cost_network.node[1].content_store 	decision_ratio[1] 	0.010189908581241
scalar tiger_cost_network.node[2].core_layer 	interests[2] 	304171
scalar tiger_cost_network.node[2].core_layer 	repo_load[2] 	114712
scalar tiger_cost_network.node[2].core_layer 	data[2] 	127382
scalar tiger_cost_network.node[2].content_store 	p_hit[2] 	0.20407270910113
scalar tiger_cost_network.node[2].content_store 	hits[2] 	62073
scalar tiger_cost_network.node[2].content_store 	misses[2] 	242098
scalar tiger_cost_network.node[2].content_store 	decision_yes[2] 	2425
scalar tiger_cost_network.node[2].content_store 	decision_no[2] 	239669
scalar tiger_cost_network.node[2].content_store 	decision_ratio[2] 	0.010016770345403
scalar tiger_cost_network.node[3].core_layer 	interests[3] 	171474
scalar tiger_cost_network.node[3].core_layer 	repo_load[3] 	104236
scalar tiger_cost_network.node[3].core_layer 	data[3] 	54003
scalar tiger_cost_network.node[3].content_store 	p_hit[3] 	0.077183712982726
scalar tiger_cost_network.node[3].content_store 	hits[3] 	13235
scalar tiger_cost_network.node[3].content_store 	misses[3] 	158239
scalar tiger_cost_network.node[3].content_store 	decision_yes[3] 	1585
scalar tiger_cost_network.node[3].content_store 	decision_no[3] 	156654
scalar tiger_cost_network.node[3].content_store 	decision_ratio[3] 	0.0100164940375
scalar tiger_cost_network.node[4].core_layer 	interests[4] 	7161
scalar tiger_cost_network.node[4].core_layer 	data[4] 	1316
scalar tiger_cost_network.node[4].content_store 	p_hit[4] 	0.81622678396872
scalar tiger_cost_network.node[4].content_store 	hits[4] 	5845
scalar tiger_cost_network.node[4].content_store 	misses[4] 	1316
scalar tiger_cost_network.node[4].content_store 	decision_yes[4] 	13
scalar tiger_cost_network.node[4].content_store 	decision_no[4] 	1303
scalar tiger_cost_network.node[4].content_store 	decision_ratio[4] 	0.0098784194528875
scalar tiger_cost_network.node[5].core_layer 	interests[5] 	0
scalar tiger_cost_network.node[5].core_layer 	data[5] 	0
scalar tiger_cost_network.node[5].content_store 	p_hit[5] 	-nan
scalar tiger_cost_network.node[5].content_store 	hits[5] 	0
scalar tiger_cost_network.node[5].content_store 	misses[5] 	0
scalar tiger_cost_network.node[5].content_store 	decision_yes[5] 	0
scalar tiger_cost_network.node[5].content_store 	decision_no[5] 	0
scalar tiger_cost_network.node[5].content_store 	decision_ratio[5] 	0
scalar tiger_cost_network.node[6].core_layer 	interests[6] 	0
scalar tiger_cost_network.node[6].core_layer 	data[6] 	0
scalar tiger_cost_network.node[6].content_store 	p_hit[6] 	-nan
scalar tiger_cost_network.node[6].content_store 	hits[6] 	0
scalar tiger_cost_network.node[6].content_store 	misses[6] 	0
scalar tiger_cost_network.node[6].content_store 	decision_yes[6] 	0
scalar tiger_cost_network.node[6].content_store 	decision_no[6] 	0
scalar tiger_cost_network.node[6].content_store 	decision_ratio[6] 	0
scalar tiger_cost_network.node[7].core_layer 	interests[7] 	0
scalar tiger_cost_network.node[7].core_layer 	data[7] 	0
scalar tiger_cost_network.node[7].content_store 	p_hit[7] 	-nan
scalar tiger_cost_network.node[7].content_store 	hits[7] 	0
scalar tiger_cost_network.node[7].content_store 	misses[7] 	0
scalar tiger_cost_network.node[7].content_store 	decision_yes[7] 	0
scalar tiger_cost_network.node[7].content_store 	decision_no[7] 	0
scalar tiger_cost_network.node[7].content_store 	decision_ratio[7] 	0
scalar tiger_cost_network.node[8].core_layer 	interests[8] 	0
scalar tiger_cost_network.node[8].core_layer 	data[8] 	0
scalar tiger_cost_network.node[8].content_store 	p_hit[8] 	-nan
scalar tiger_cost_network.node[8].content_store 	hits[8] 	0
scalar tiger_cost_network.node[8].content_store 	misses[8] 	0
scalar tiger_cost_network.node[8].content_store 	decision_yes[8] 	0
scalar tiger_cost_network.node[8].content_store 	decision_no[8] 	0
scalar tiger_cost_network.node[8].content_store 	decision_ratio[8] 	0
scalar tiger_cost_network.node[9].core_layer 	interests[9] 	0
scalar tiger_cost_network.node[9].core_layer 	data[9] 	0
scalar tiger_cost_network.node[9].content_store 	p_hit[9] 	-nan
scalar tiger_cost_network.node[9].content_store 	hits[9] 	0
scalar tiger_cost_network.node[9].content_store 	misses[9] 	0
scalar tiger_cost_network.node[9].content_store 	decision_yes[9] 	0
scalar tiger_cost_network.node[9].content_store 	decision_no[9] 	0
scalar tiger_cost_network.node[9].content_store 	decision_ratio[9] 	0
scalar tiger_cost_network.node[10].core_layer 	interests[10] 	182276
scalar tiger_cost_network.node[10].core_layer 	data[10] 	120390
scalar tiger_cost_network.node[10].content_store 	p_hit[10] 	0.33950712106915
scalar tiger_cost_network.node[10].content_store 	hits[10] 	61884
scalar tiger_cost_network.node[10].content_store 	misses[10] 	120392
scalar tiger_cost_network.node[10].content_store 	decision_yes[10] 	1170
scalar tiger_cost_network.node[10].content_store 	decision_no[10] 	119220
scalar tiger_cost_network.node[10].content_store 	decision_ratio[10] 	0.00971841515076
scalar tiger_cost_network.node[11].core_layer 	interests[11] 	37330
scalar tiger_cost_network.node[11].core_layer 	data[11] 	31241
scalar tiger_cost_network.node[11].content_store 	p_hit[11] 	0.1631127779266
scalar tiger_cost_network.node[11].content_store 	hits[11] 	6089
scalar tiger_cost_network.node[11].content_store 	misses[11] 	31241
scalar tiger_cost_network.node[11].content_store 	decision_yes[11] 	320
scalar tiger_cost_network.node[11].content_store 	decision_no[11] 	30921
scalar tiger_cost_network.node[11].content_store 	decision_ratio[11] 	0.010242949969591
scalar tiger_cost_network.node[12].core_layer 	interests[12] 	40784
scalar tiger_cost_network.node[12].core_layer 	data[12] 	31142
scalar tiger_cost_network.node[12].content_store 	p_hit[12] 	0.2364162416634
scalar tiger_cost_network.node[12].content_store 	hits[12] 	9642
scalar tiger_cost_network.node[12].content_store 	misses[12] 	31142
scalar tiger_cost_network.node[12].content_store 	decision_yes[12] 	330
scalar tiger_cost_network.node[12].content_store 	decision_no[12] 	30812
scalar tiger_cost_network.node[12].content_store 	decision_ratio[12] 	0.010596621925374
scalar tiger_cost_network.node[13].core_layer 	interests[13] 	0
scalar tiger_cost_network.node[13].core_layer 	data[13] 	0
scalar tiger_cost_network.node[13].content_store 	p_hit[13] 	-nan
scalar tiger_cost_network.node[13].content_store 	hits[13] 	0
scalar tiger_cost_network.node[13].content_store 	misses[13] 	0
scalar tiger_cost_network.node[13].content_store 	decision_yes[13] 	0
scalar tiger_cost_network.node[13].content_store 	decision_no[13] 	0
scalar tiger_cost_network.node[13].content_store 	decision_ratio[13] 	0
scalar tiger_cost_network.node[14].core_layer 	interests[14] 	0
scalar tiger_cost_network.node[14].core_layer 	data[14] 	0
scalar tiger_cost_network.node[14].content_store 	p_hit[14] 	-nan
scalar tiger_cost_network.node[14].content_store 	hits[14] 	0
scalar tiger_cost_network.node[14].content_store 	misses[14] 	0
scalar tiger_cost_network.node[14].content_store 	decision_yes[14] 	0
scalar tiger_cost_network.node[14].content_store 	decision_no[14] 	0
scalar tiger_cost_network.node[14].content_store 	decision_ratio[14] 	0
scalar tiger_cost_network.node[15].core_layer 	interests[15] 	180797
scalar tiger_cost_network.node[15].core_layer 	data[15] 	120190
scalar tiger_cost_network.node[15].content_store 	p_hit[15] 	0.33521020813398
scalar tiger_cost_network.node[15].content_store 	hits[15] 	60605
scalar tiger_cost_network.node[15].content_store 	misses[15] 	120192
scalar tiger_cost_network.node[15].content_store 	decision_yes[15] 	1144
scalar tiger_cost_network.node[15].content_store 	decision_no[15] 	119046
scalar tiger_cost_network.node[15].content_store 	decision_ratio[15] 	0.0095182627506448
scalar tiger_cost_network.node[16].core_layer 	interests[16] 	29667
scalar tiger_cost_network.node[16].core_layer 	data[16] 	27348
scalar tiger_cost_network.node[16].content_store 	p_hit[16] 	0.078167661037516
scalar tiger_cost_network.node[16].content_store 	hits[16] 	2319
scalar tiger_cost_network.node[16].content_store 	misses[16] 	27348
scalar tiger_cost_network.node[16].content_store 	decision_yes[16] 	278
scalar tiger_cost_network.node[16].content_store 	decision_no[16] 	27070
scalar tiger_cost_network.node[16].content_store 	decision_ratio[16] 	0.010165277168349
scalar tiger_cost_network.node[17].core_layer 	interests[17] 	27984
scalar tiger_cost_network.node[17].core_layer 	data[17] 	26647
scalar tiger_cost_network.node[17].content_store 	p_hit[17] 	0.047777301315037
scalar tiger_cost_network.node[17].content_store 	hits[17] 	1337
scalar tiger_cost_network.node[17].content_store 	misses[17] 	26647
scalar tiger_cost_network.node[17].content_store 	decision_yes[17] 	240
scalar tiger_cost_network.node[17].content_store 	decision_no[17] 	26407
scalar tiger_cost_network.node[17].content_store 	decision_ratio[17] 	0.0090066423987691
scalar tiger_cost_network.node[18].core_layer 	interests[18] 	81469
scalar tiger_cost_network.node[18].core_layer 	repo_load[18] 	79515
scalar tiger_cost_network.node[18].core_layer 	data[18] 	0
scalar tiger_cost_network.node[18].content_store 	p_hit[18] 	0.023984583092956
scalar tiger_cost_network.node[18].content_store 	hits[18] 	1954
scalar tiger_cost_network.node[18].content_store 	misses[18] 	79515
scalar tiger_cost_network.node[18].content_store 	decision_yes[18] 	836
scalar tiger_cost_network.node[18].content_store 	decision_no[18] 	78679
scalar tiger_cost_network.node[18].content_store 	decision_ratio[18] 	0.010513739545998
scalar tiger_cost_network.node[19].core_layer 	interests[19] 	0
scalar tiger_cost_network.node[19].core_layer 	data[19] 	0
scalar tiger_cost_network.node[19].content_store 	p_hit[19] 	-nan
scalar tiger_cost_network.node[19].content_store 	hits[19] 	0
scalar tiger_cost_network.node[19].content_store 	misses[19] 	0
scalar tiger_cost_network.node[19].content_store 	decision_yes[19] 	0
scalar tiger_cost_network.node[19].content_store 	decision_no[19] 	0
scalar tiger_cost_network.node[19].content_store 	decision_ratio[19] 	0
scalar tiger_cost_network.node[20].core_layer 	interests[20] 	0
scalar tiger_cost_network.node[20].core_layer 	data[20] 	0
scalar tiger_cost_network.node[20].content_store 	p_hit[20] 	-nan
scalar tiger_cost_network.node[20].content_store 	hits[20] 	0
scalar tiger_cost_network.node[20].content_store 	misses[20] 	0
scalar tiger_cost_network.node[20].content_store 	decision_yes[20] 	0
scalar tiger_cost_network.node[20].content_store 	decision_no[20] 	0
scalar tiger_cost_network.node[20].content_store 	decision_ratio[20] 	0
scalar tiger_cost_network.node[21].core_layer 	interests[21] 	0
scalar tiger_cost_network.node[21].core_layer 	data[21] 	0
scalar tiger_cost_network.node[21].content_store 	p_hit[21] 	-nan
scalar tiger_cost_network.node[21].content_store 	hits[21] 	0
scalar tiger_cost_network.node[21].content_store 	misses[21] 	0
scalar tiger_cost_network.node[21].content_store 	decision_yes[21] 	0
scalar tiger_cost_network.node[21].content_store 	decision_no[21] 	0
scalar tiger_cost_network.node[21].content_store 	decision_ratio[21] 	0
scalar tiger_cost_network.client[2] 	hdistance[2] 	1.3715846389693
scalar tiger_cost_network.client[2] 	downloads[2] 	180691
scalar tiger_cost_network.client[2] 	avg_time[2] 	0.000400695942
scalar tiger_cost_network.client[2] 	interests_sent[2] 	180693
scalar tiger_cost_network.client[10] 	hdistance[10] 	2.1844019530774
scalar tiger_cost_network.client[10] 	downloads[10] 	180638
scalar tiger_cost_network.client[10] 	avg_time[10] 	0.000605758025
scalar tiger_cost_network.client[10] 	interests_sent[10] 	180640
scalar tiger_cost_network.client[15] 	hdistance[15] 	1.8331137315076
scalar tiger_cost_network.client[15] 	downloads[15] 	179871
scalar tiger_cost_network.client[15] 	avg_time[15] 	0.000378513327
scalar tiger_cost_network.client[15] 	interests_sent[15] 	179873
