version 2
run General-11-20140930-19:27:33-29382
attr D fix0.01
attr F nrr
attr R lru
attr a 1
attr configname General
attr csize 1e3
attr ctlg 1e5
attr datetime 20140930-19:27:33
attr experiment General
attr inifile omnetpp.ini
attr iterationvars "$net=tiger_cost, $rep=11, $priceratiovalue=10, $weights=0.333_0.333_0.334, $lambda=100, $a=1, $ctlg=1e5, $F=nrr, $ttl=10, $D=fix0.01, $xi=1, $R=lru, $csize=1e3, $pricebits=0, $window=60, $variance=0.05, $mytime=1800"
attr iterationvars2 "$net=tiger_cost, $rep=11, $priceratiovalue=10, $weights=0.333_0.333_0.334, $lambda=100, $a=1, $ctlg=1e5, $F=nrr, $ttl=10, $D=fix0.01, $xi=1, $R=lru, $csize=1e3, $pricebits=0, $window=60, $variance=0.05, $mytime=1800, $repetition=0"
attr lambda 100
attr measurement "$net=tiger_cost, $rep=11, $priceratiovalue=10, $weights=0.333_0.333_0.334, $lambda=100, $a=1, $ctlg=1e5, $F=nrr, $ttl=10, $D=fix0.01, $xi=1, $R=lru, $csize=1e3, $pricebits=0, $window=60, $variance=0.05, $mytime=1800"
attr mytime 1800
attr net tiger_cost
attr network networks.${net=tiger_cost,dtelecom_cost}_network
attr pricebits 0
attr priceratiovalue 10
attr processid 29382
attr rep 11
attr repetition 0
attr replication #0
attr resultdir results
attr runnumber 11
attr seedset 11
attr ttl 10
attr variance 0.05
attr weights 0.333_0.333_0.334
attr window 60
attr xi 1

scalar . 	a 	1
scalar . 	csize 	1e3
scalar . 	ctlg 	1e5
scalar . 	lambda 	100
scalar . 	mytime 	1800
scalar . 	pricebits 	0
scalar . 	priceratiovalue 	10
scalar . 	rep 	11
scalar . 	ttl 	10
scalar . 	variance 	0.05
scalar . 	window 	60
scalar . 	xi 	1
scalar tiger_cost_network.content_distribution 	repo-0 	1
scalar tiger_cost_network.content_distribution 	repo-1 	10
scalar tiger_cost_network.content_distribution 	repo-2 	9
scalar tiger_cost_network.content_distribution 	client-0 	4
scalar tiger_cost_network.content_distribution 	client-1 	3
scalar tiger_cost_network.content_distribution 	client-2 	5
scalar tiger_cost_network.content_distribution 	repo-0_card 	33091
scalar tiger_cost_network.content_distribution 	repo-0_price 	10
scalar tiger_cost_network.content_distribution 	repo-1_card 	33552
scalar tiger_cost_network.content_distribution 	repo-1_price 	1
scalar tiger_cost_network.content_distribution 	repo-2_card 	33357
scalar tiger_cost_network.content_distribution 	repo-2_price 	0
scalar tiger_cost_network.statistics 	repo_popularity[0] 	0.34138276193578
scalar tiger_cost_network.statistics 	repo_popularity[1] 	0.30435585390103
scalar tiger_cost_network.statistics 	repo_popularity[2] 	0.3542613841632
scalar tiger_cost_network.statistics 	stabilization_time 	36060
scalar tiger_cost_network.statistics 	p_hit 	0.14454422146547
scalar tiger_cost_network.statistics 	interests 	80528.045454545
scalar tiger_cost_network.statistics 	data 	56019.681818182
scalar tiger_cost_network.statistics 	hdistance 	2.8104044303933
scalar tiger_cost_network.statistics 	avg_time 	0.00130787206
scalar tiger_cost_network.statistics 	downloads 	539163
scalar tiger_cost_network.statistics 	total_cost 	1122517
scalar tiger_cost_network.statistics 	total_replicas 	100000
scalar tiger_cost_network.statistics 	inner_hit 	0.47498622865441
scalar tiger_cost_network.node[0].core_layer 	interests[0] 	0
scalar tiger_cost_network.node[0].core_layer 	data[0] 	0
scalar tiger_cost_network.node[0].core_layer 	repo_int[0] 	283068
scalar tiger_cost_network.node[0].content_store 	p_hit[0] 	-nan
scalar tiger_cost_network.node[0].content_store 	hits[0] 	0
scalar tiger_cost_network.node[0].content_store 	misses[0] 	0
scalar tiger_cost_network.node[0].content_store 	decision_yes[0] 	0
scalar tiger_cost_network.node[0].content_store 	decision_no[0] 	0
scalar tiger_cost_network.node[0].content_store 	decision_ratio[0] 	0
scalar tiger_cost_network.node[1].core_layer 	interests[1] 	272761
scalar tiger_cost_network.node[1].core_layer 	repo_load[1] 	102727
scalar tiger_cost_network.node[1].core_layer 	data[1] 	162406
scalar tiger_cost_network.node[1].content_store 	p_hit[1] 	0.027965874886806
scalar tiger_cost_network.node[1].content_store 	hits[1] 	7628
scalar tiger_cost_network.node[1].content_store 	misses[1] 	265133
scalar tiger_cost_network.node[1].content_store 	decision_yes[1] 	2626
scalar tiger_cost_network.node[1].content_store 	decision_no[1] 	262507
scalar tiger_cost_network.node[1].content_store 	decision_ratio[1] 	0.0099044630430765
scalar tiger_cost_network.node[2].core_layer 	interests[2] 	282287
scalar tiger_cost_network.node[2].core_layer 	data[2] 	272761
scalar tiger_cost_network.node[2].content_store 	p_hit[2] 	0.033745797716508
scalar tiger_cost_network.node[2].content_store 	hits[2] 	9526
scalar tiger_cost_network.node[2].content_store 	misses[2] 	272761
scalar tiger_cost_network.node[2].content_store 	decision_yes[2] 	2636
scalar tiger_cost_network.node[2].content_store 	decision_no[2] 	270125
scalar tiger_cost_network.node[2].content_store 	decision_ratio[2] 	0.0096641382015757
scalar tiger_cost_network.node[3].core_layer 	interests[3] 	365667
scalar tiger_cost_network.node[3].core_layer 	data[3] 	302187
scalar tiger_cost_network.node[3].content_store 	p_hit[3] 	0.173575958454
scalar tiger_cost_network.node[3].content_store 	hits[3] 	63471
scalar tiger_cost_network.node[3].content_store 	misses[3] 	302196
scalar tiger_cost_network.node[3].content_store 	decision_yes[3] 	2972
scalar tiger_cost_network.node[3].content_store 	decision_no[3] 	299215
scalar tiger_cost_network.node[3].content_store 	decision_ratio[3] 	0.0098349697372819
scalar tiger_cost_network.node[4].core_layer 	interests[4] 	285343
scalar tiger_cost_network.node[4].core_layer 	data[4] 	208025
scalar tiger_cost_network.node[4].content_store 	p_hit[4] 	0.27088801898067
scalar tiger_cost_network.node[4].content_store 	hits[4] 	77296
scalar tiger_cost_network.node[4].content_store 	misses[4] 	208047
scalar tiger_cost_network.node[4].content_store 	decision_yes[4] 	2057
scalar tiger_cost_network.node[4].content_store 	decision_no[4] 	205968
scalar tiger_cost_network.node[4].content_store 	decision_ratio[4] 	0.009888234587189
scalar tiger_cost_network.node[5].core_layer 	interests[5] 	201103
scalar tiger_cost_network.node[5].core_layer 	data[5] 	131382
scalar tiger_cost_network.node[5].content_store 	p_hit[5] 	0.3466532075603
scalar tiger_cost_network.node[5].content_store 	hits[5] 	69713
scalar tiger_cost_network.node[5].content_store 	misses[5] 	131390
scalar tiger_cost_network.node[5].content_store 	decision_yes[5] 	1312
scalar tiger_cost_network.node[5].content_store 	decision_no[5] 	130070
scalar tiger_cost_network.node[5].content_store 	decision_ratio[5] 	0.0099861472652266
scalar tiger_cost_network.node[6].core_layer 	interests[6] 	46378
scalar tiger_cost_network.node[6].core_layer 	data[6] 	36379
scalar tiger_cost_network.node[6].content_store 	p_hit[6] 	0.21559791280348
scalar tiger_cost_network.node[6].content_store 	hits[6] 	9999
scalar tiger_cost_network.node[6].content_store 	misses[6] 	36379
scalar tiger_cost_network.node[6].content_store 	decision_yes[6] 	369
scalar tiger_cost_network.node[6].content_store 	decision_no[6] 	36010
scalar tiger_cost_network.node[6].content_store 	decision_ratio[6] 	0.010143214491877
scalar tiger_cost_network.node[7].core_layer 	interests[7] 	36379
scalar tiger_cost_network.node[7].core_layer 	data[7] 	31028
scalar tiger_cost_network.node[7].content_store 	p_hit[7] 	0.1470903543253
scalar tiger_cost_network.node[7].content_store 	hits[7] 	5351
scalar tiger_cost_network.node[7].content_store 	misses[7] 	31028
scalar tiger_cost_network.node[7].content_store 	decision_yes[7] 	300
scalar tiger_cost_network.node[7].content_store 	decision_no[7] 	30728
scalar tiger_cost_network.node[7].content_store 	decision_ratio[7] 	0.0096686863478149
scalar tiger_cost_network.node[8].core_layer 	interests[8] 	92642
scalar tiger_cost_network.node[8].core_layer 	data[8] 	88265
scalar tiger_cost_network.node[8].content_store 	p_hit[8] 	0.047246389326655
scalar tiger_cost_network.node[8].content_store 	hits[8] 	4377
scalar tiger_cost_network.node[8].content_store 	misses[8] 	88265
scalar tiger_cost_network.node[8].content_store 	decision_yes[8] 	917
scalar tiger_cost_network.node[8].content_store 	decision_no[8] 	87348
scalar tiger_cost_network.node[8].content_store 	decision_ratio[8] 	0.010389168979777
scalar tiger_cost_network.node[9].core_layer 	interests[9] 	88265
scalar tiger_cost_network.node[9].core_layer 	repo_load[9] 	85094
scalar tiger_cost_network.node[9].core_layer 	data[9] 	0
scalar tiger_cost_network.node[9].content_store 	p_hit[9] 	0.035925904945335
scalar tiger_cost_network.node[9].content_store 	hits[9] 	3171
scalar tiger_cost_network.node[9].content_store 	misses[9] 	85094
scalar tiger_cost_network.node[9].content_store 	decision_yes[9] 	838
scalar tiger_cost_network.node[9].content_store 	decision_no[9] 	84256
scalar tiger_cost_network.node[9].content_store 	decision_ratio[9] 	0.0098479328742332
scalar tiger_cost_network.node[10].core_layer 	interests[10] 	100792
scalar tiger_cost_network.node[10].core_layer 	repo_load[10] 	95247
scalar tiger_cost_network.node[10].core_layer 	data[10] 	0
scalar tiger_cost_network.node[10].content_store 	p_hit[10] 	0.055014286848163
scalar tiger_cost_network.node[10].content_store 	hits[10] 	5545
scalar tiger_cost_network.node[10].content_store 	misses[10] 	95247
scalar tiger_cost_network.node[10].content_store 	decision_yes[10] 	898
scalar tiger_cost_network.node[10].content_store 	decision_no[10] 	94349
scalar tiger_cost_network.node[10].content_store 	decision_ratio[10] 	0.009428118470923
scalar tiger_cost_network.node[11].core_layer 	interests[11] 	0
scalar tiger_cost_network.node[11].core_layer 	data[11] 	0
scalar tiger_cost_network.node[11].content_store 	p_hit[11] 	-nan
scalar tiger_cost_network.node[11].content_store 	hits[11] 	0
scalar tiger_cost_network.node[11].content_store 	misses[11] 	0
scalar tiger_cost_network.node[11].content_store 	decision_yes[11] 	0
scalar tiger_cost_network.node[11].content_store 	decision_no[11] 	0
scalar tiger_cost_network.node[11].content_store 	decision_ratio[11] 	0
scalar tiger_cost_network.node[12].core_layer 	interests[12] 	0
scalar tiger_cost_network.node[12].core_layer 	data[12] 	0
scalar tiger_cost_network.node[12].content_store 	p_hit[12] 	-nan
scalar tiger_cost_network.node[12].content_store 	hits[12] 	0
scalar tiger_cost_network.node[12].content_store 	misses[12] 	0
scalar tiger_cost_network.node[12].content_store 	decision_yes[12] 	0
scalar tiger_cost_network.node[12].content_store 	decision_no[12] 	0
scalar tiger_cost_network.node[12].content_store 	decision_ratio[12] 	0
scalar tiger_cost_network.node[13].core_layer 	interests[13] 	0
scalar tiger_cost_network.node[13].core_layer 	data[13] 	0
scalar tiger_cost_network.node[13].content_store 	p_hit[13] 	-nan
scalar tiger_cost_network.node[13].content_store 	hits[13] 	0
scalar tiger_cost_network.node[13].content_store 	misses[13] 	0
scalar tiger_cost_network.node[13].content_store 	decision_yes[13] 	0
scalar tiger_cost_network.node[13].content_store 	decision_no[13] 	0
scalar tiger_cost_network.node[13].content_store 	decision_ratio[13] 	0
scalar tiger_cost_network.node[14].core_layer 	interests[14] 	0
scalar tiger_cost_network.node[14].core_layer 	data[14] 	0
scalar tiger_cost_network.node[14].content_store 	p_hit[14] 	-nan
scalar tiger_cost_network.node[14].content_store 	hits[14] 	0
scalar tiger_cost_network.node[14].content_store 	misses[14] 	0
scalar tiger_cost_network.node[14].content_store 	decision_yes[14] 	0
scalar tiger_cost_network.node[14].content_store 	decision_no[14] 	0
scalar tiger_cost_network.node[14].content_store 	decision_ratio[14] 	0
scalar tiger_cost_network.node[15].core_layer 	interests[15] 	0
scalar tiger_cost_network.node[15].core_layer 	data[15] 	0
scalar tiger_cost_network.node[15].content_store 	p_hit[15] 	-nan
scalar tiger_cost_network.node[15].content_store 	hits[15] 	0
scalar tiger_cost_network.node[15].content_store 	misses[15] 	0
scalar tiger_cost_network.node[15].content_store 	decision_yes[15] 	0
scalar tiger_cost_network.node[15].content_store 	decision_no[15] 	0
scalar tiger_cost_network.node[15].content_store 	decision_ratio[15] 	0
scalar tiger_cost_network.node[16].core_layer 	interests[16] 	0
scalar tiger_cost_network.node[16].core_layer 	data[16] 	0
scalar tiger_cost_network.node[16].content_store 	p_hit[16] 	-nan
scalar tiger_cost_network.node[16].content_store 	hits[16] 	0
scalar tiger_cost_network.node[16].content_store 	misses[16] 	0
scalar tiger_cost_network.node[16].content_store 	decision_yes[16] 	0
scalar tiger_cost_network.node[16].content_store 	decision_no[16] 	0
scalar tiger_cost_network.node[16].content_store 	decision_ratio[16] 	0
scalar tiger_cost_network.node[17].core_layer 	interests[17] 	0
scalar tiger_cost_network.node[17].core_layer 	data[17] 	0
scalar tiger_cost_network.node[17].content_store 	p_hit[17] 	-nan
scalar tiger_cost_network.node[17].content_store 	hits[17] 	0
scalar tiger_cost_network.node[17].content_store 	misses[17] 	0
scalar tiger_cost_network.node[17].content_store 	decision_yes[17] 	0
scalar tiger_cost_network.node[17].content_store 	decision_no[17] 	0
scalar tiger_cost_network.node[17].content_store 	decision_ratio[17] 	0
scalar tiger_cost_network.node[18].core_layer 	interests[18] 	0
scalar tiger_cost_network.node[18].core_layer 	data[18] 	0
scalar tiger_cost_network.node[18].content_store 	p_hit[18] 	-nan
scalar tiger_cost_network.node[18].content_store 	hits[18] 	0
scalar tiger_cost_network.node[18].content_store 	misses[18] 	0
scalar tiger_cost_network.node[18].content_store 	decision_yes[18] 	0
scalar tiger_cost_network.node[18].content_store 	decision_no[18] 	0
scalar tiger_cost_network.node[18].content_store 	decision_ratio[18] 	0
scalar tiger_cost_network.node[19].core_layer 	interests[19] 	0
scalar tiger_cost_network.node[19].core_layer 	data[19] 	0
scalar tiger_cost_network.node[19].content_store 	p_hit[19] 	-nan
scalar tiger_cost_network.node[19].content_store 	hits[19] 	0
scalar tiger_cost_network.node[19].content_store 	misses[19] 	0
scalar tiger_cost_network.node[19].content_store 	decision_yes[19] 	0
scalar tiger_cost_network.node[19].content_store 	decision_no[19] 	0
scalar tiger_cost_network.node[19].content_store 	decision_ratio[19] 	0
scalar tiger_cost_network.node[20].core_layer 	interests[20] 	0
scalar tiger_cost_network.node[20].core_layer 	data[20] 	0
scalar tiger_cost_network.node[20].content_store 	p_hit[20] 	-nan
scalar tiger_cost_network.node[20].content_store 	hits[20] 	0
scalar tiger_cost_network.node[20].content_store 	misses[20] 	0
scalar tiger_cost_network.node[20].content_store 	decision_yes[20] 	0
scalar tiger_cost_network.node[20].content_store 	decision_no[20] 	0
scalar tiger_cost_network.node[20].content_store 	decision_ratio[20] 	0
scalar tiger_cost_network.node[21].core_layer 	interests[21] 	0
scalar tiger_cost_network.node[21].core_layer 	data[21] 	0
scalar tiger_cost_network.node[21].content_store 	p_hit[21] 	-nan
scalar tiger_cost_network.node[21].content_store 	hits[21] 	0
scalar tiger_cost_network.node[21].content_store 	misses[21] 	0
scalar tiger_cost_network.node[21].content_store 	decision_yes[21] 	0
scalar tiger_cost_network.node[21].content_store 	decision_no[21] 	0
scalar tiger_cost_network.node[21].content_store 	decision_ratio[21] 	0
scalar tiger_cost_network.client[3] 	hdistance[3] 	2.3951847054094
scalar tiger_cost_network.client[3] 	downloads[3] 	179096
scalar tiger_cost_network.client[3] 	avg_time[3] 	0.000908889644
scalar tiger_cost_network.client[4] 	hdistance[4] 	2.9002937427257
scalar tiger_cost_network.client[4] 	downloads[4] 	180430
scalar tiger_cost_network.client[4] 	avg_time[4] 	0.00138478202
scalar tiger_cost_network.client[5] 	hdistance[5] 	3.1357348430446
scalar tiger_cost_network.client[5] 	downloads[5] 	179637
scalar tiger_cost_network.client[5] 	avg_time[5] 	0.001629944518
