version 2
run General-2579-20140506-01:45:55-6806
attr D costprobprodcorr0.01
attr F nrr
attr R lru
attr a 1
attr configname General
attr csize 1e3
attr ctlg 1e5
attr datetime 20140506-01:45:55
attr experiment General
attr inifile omnetpp.ini
attr iterationvars "$net=one_cache_scenario_3_links, $rep=14, $priceratiovalue=2, $weights=0_0.25_0.75, $a=1, $ctlg=1e5, $F=nrr, $ttl=1000, $D=costprobprodcorr0.01, $xi=2, $R=lru, $csize=1e3"
attr iterationvars2 "$net=one_cache_scenario_3_links, $rep=14, $priceratiovalue=2, $weights=0_0.25_0.75, $a=1, $ctlg=1e5, $F=nrr, $ttl=1000, $D=costprobprodcorr0.01, $xi=2, $R=lru, $csize=1e3, $repetition=0"
attr measurement "$net=one_cache_scenario_3_links, $rep=14, $priceratiovalue=2, $weights=0_0.25_0.75, $a=1, $ctlg=1e5, $F=nrr, $ttl=1000, $D=costprobprodcorr0.01, $xi=2, $R=lru, $csize=1e3"
attr net one_cache_scenario_3_links
attr network networks.${net=one_cache_scenario_3_links}_network
attr priceratiovalue 2
attr processid 6806
attr rep 14
attr repetition 0
attr replication #0
attr resultdir results
attr runnumber 2579
attr seedset 14
attr ttl 1000
attr weights 0_0.25_0.75
attr xi 2

scalar . 	a 	1
scalar . 	csize 	1e3
scalar . 	ctlg 	1e5
scalar . 	priceratiovalue 	2
scalar . 	rep 	14
scalar . 	ttl 	1000
scalar . 	xi 	2
scalar one_cache_scenario_3_links_network.content_distribution 	repo-0 	4
scalar one_cache_scenario_3_links_network.content_distribution 	repo-1 	5
scalar one_cache_scenario_3_links_network.content_distribution 	repo-2 	6
scalar one_cache_scenario_3_links_network.content_distribution 	client-0 	0
scalar one_cache_scenario_3_links_network.content_distribution 	repo-0_card 	0
scalar one_cache_scenario_3_links_network.content_distribution 	repo-1_card 	24719
scalar one_cache_scenario_3_links_network.content_distribution 	repo-2_card 	75281
scalar one_cache_scenario_3_links_network.statistics 	p_hit 	0.27384983929202
scalar one_cache_scenario_3_links_network.statistics 	interests 	49735.285714286
scalar one_cache_scenario_3_links_network.statistics 	data 	24076.857142857
scalar one_cache_scenario_3_links_network.statistics 	hdistance 	0.93836054986109
scalar one_cache_scenario_3_links_network.statistics 	avg_time 	0
scalar one_cache_scenario_3_links_network.statistics 	downloads 	179609
scalar one_cache_scenario_3_links_network.statistics 	total_cost 	144597
scalar one_cache_scenario_3_links_network.statistics 	total_replicas 	100000
scalar one_cache_scenario_3_links_network.statistics 	interests_sent 	179609
scalar one_cache_scenario_3_links_network.node[0].core_layer 	interests[0] 	179609
scalar one_cache_scenario_3_links_network.node[0].core_layer 	data[0] 	84269
scalar one_cache_scenario_3_links_network.node[0].core_layer 	repo_int[0] 	84269
scalar one_cache_scenario_3_links_network.node[0].content_store 	p_hit[0] 	0.53081972506946
scalar one_cache_scenario_3_links_network.node[0].content_store 	hits[0] 	95340
scalar one_cache_scenario_3_links_network.node[0].content_store 	misses[0] 	84269
scalar one_cache_scenario_3_links_network.node[0].content_store 	decision_yes[0] 	793
scalar one_cache_scenario_3_links_network.node[0].content_store 	decision_no[0] 	83476
scalar one_cache_scenario_3_links_network.node[0].content_store 	decision_ratio[0] 	0.0094103406946801
scalar one_cache_scenario_3_links_network.node[0].content_store 	correction_factor[0] 	0.0030769230769231
scalar one_cache_scenario_3_links_network.node[0].content_store 	xi[0] 	2
scalar one_cache_scenario_3_links_network.node[1].core_layer 	interests[1] 	0
scalar one_cache_scenario_3_links_network.node[1].core_layer 	data[1] 	0
scalar one_cache_scenario_3_links_network.node[1].content_store 	p_hit[1] 	-nan
scalar one_cache_scenario_3_links_network.node[1].content_store 	hits[1] 	0
scalar one_cache_scenario_3_links_network.node[1].content_store 	misses[1] 	0
scalar one_cache_scenario_3_links_network.node[1].content_store 	decision_yes[1] 	0
scalar one_cache_scenario_3_links_network.node[1].content_store 	decision_no[1] 	0
scalar one_cache_scenario_3_links_network.node[1].content_store 	decision_ratio[1] 	0
scalar one_cache_scenario_3_links_network.node[2].core_layer 	interests[2] 	23941
scalar one_cache_scenario_3_links_network.node[2].core_layer 	data[2] 	23941
scalar one_cache_scenario_3_links_network.node[2].content_store 	p_hit[2] 	0
scalar one_cache_scenario_3_links_network.node[2].content_store 	hits[2] 	0
scalar one_cache_scenario_3_links_network.node[2].content_store 	misses[2] 	23941
scalar one_cache_scenario_3_links_network.node[2].content_store 	decision_yes[2] 	0
scalar one_cache_scenario_3_links_network.node[2].content_store 	decision_no[2] 	23941
scalar one_cache_scenario_3_links_network.node[2].content_store 	decision_ratio[2] 	0
scalar one_cache_scenario_3_links_network.node[3].core_layer 	interests[3] 	60328
scalar one_cache_scenario_3_links_network.node[3].core_layer 	data[3] 	60328
scalar one_cache_scenario_3_links_network.node[3].content_store 	p_hit[3] 	0
scalar one_cache_scenario_3_links_network.node[3].content_store 	hits[3] 	0
scalar one_cache_scenario_3_links_network.node[3].content_store 	misses[3] 	60328
scalar one_cache_scenario_3_links_network.node[3].content_store 	decision_yes[3] 	0
scalar one_cache_scenario_3_links_network.node[3].content_store 	decision_no[3] 	60328
scalar one_cache_scenario_3_links_network.node[3].content_store 	decision_ratio[3] 	0
scalar one_cache_scenario_3_links_network.node[4].core_layer 	interests[4] 	0
scalar one_cache_scenario_3_links_network.node[4].core_layer 	data[4] 	0
scalar one_cache_scenario_3_links_network.node[4].content_store 	p_hit[4] 	-nan
scalar one_cache_scenario_3_links_network.node[4].content_store 	hits[4] 	0
scalar one_cache_scenario_3_links_network.node[4].content_store 	misses[4] 	0
scalar one_cache_scenario_3_links_network.node[4].content_store 	decision_yes[4] 	0
scalar one_cache_scenario_3_links_network.node[4].content_store 	decision_no[4] 	0
scalar one_cache_scenario_3_links_network.node[4].content_store 	decision_ratio[4] 	0
scalar one_cache_scenario_3_links_network.node[5].core_layer 	interests[5] 	23941
scalar one_cache_scenario_3_links_network.node[5].core_layer 	repo_load[5] 	23941
scalar one_cache_scenario_3_links_network.node[5].core_layer 	data[5] 	0
scalar one_cache_scenario_3_links_network.node[5].content_store 	p_hit[5] 	0
scalar one_cache_scenario_3_links_network.node[5].content_store 	hits[5] 	0
scalar one_cache_scenario_3_links_network.node[5].content_store 	misses[5] 	23941
scalar one_cache_scenario_3_links_network.node[5].content_store 	decision_yes[5] 	0
scalar one_cache_scenario_3_links_network.node[5].content_store 	decision_no[5] 	23941
scalar one_cache_scenario_3_links_network.node[5].content_store 	decision_ratio[5] 	0
scalar one_cache_scenario_3_links_network.node[6].core_layer 	interests[6] 	60328
scalar one_cache_scenario_3_links_network.node[6].core_layer 	repo_load[6] 	60328
scalar one_cache_scenario_3_links_network.node[6].core_layer 	data[6] 	0
scalar one_cache_scenario_3_links_network.node[6].content_store 	p_hit[6] 	0
scalar one_cache_scenario_3_links_network.node[6].content_store 	hits[6] 	0
scalar one_cache_scenario_3_links_network.node[6].content_store 	misses[6] 	60328
scalar one_cache_scenario_3_links_network.node[6].content_store 	decision_yes[6] 	0
scalar one_cache_scenario_3_links_network.node[6].content_store 	decision_no[6] 	60328
scalar one_cache_scenario_3_links_network.node[6].content_store 	decision_ratio[6] 	0
scalar one_cache_scenario_3_links_network.client[0] 	hdistance[0] 	0.93836054986109
scalar one_cache_scenario_3_links_network.client[0] 	downloads[0] 	179609
scalar one_cache_scenario_3_links_network.client[0] 	avg_time[0] 	0
scalar one_cache_scenario_3_links_network.client[0] 	interests_sent[0] 	179609
