version 2
run General-5-20150720-15:50:55-12231
attr C 11666667
attr D lce
attr F spr
attr R lru
attr a 1
attr brates 1
attr configname General
attr ctlg 1e8
attr datetime 20150720-15:50:55
attr experiment General
attr inifile omnetpp.ini
attr iterationvars "$net=abilene_nodelay, $rep=0, $lambda=100, $a=1, $ctlg=1e8, $brates=1, $F=spr, $ttl=1000, $D=lce, $R=lru, $C=11666667, $window=60, $variance=0.05, $mytime=18000"
attr iterationvars2 "$net=abilene_nodelay, $rep=0, $lambda=100, $a=1, $ctlg=1e8, $brates=1, $F=spr, $ttl=1000, $D=lce, $R=lru, $C=11666667, $window=60, $variance=0.05, $mytime=18000, $repetition=0"
attr lambda 100
attr measurement "$net=abilene_nodelay, $rep=0, $lambda=100, $a=1, $ctlg=1e8, $brates=1, $F=spr, $ttl=1000, $D=lce, $R=lru, $C=11666667, $window=60, $variance=0.05, $mytime=18000"
attr mytime 18000
attr net abilene_nodelay
attr network networks.${net=abilene_nodelay}_network
attr processid 12231
attr rep 0
attr repetition 0
attr replication #0
attr resultdir results
attr runnumber 5
attr seedset 0
attr ttl 1000
attr variance 0.05
attr window 60

scalar . 	C 	11666667
scalar . 	a 	1
scalar . 	brates 	1
scalar . 	ctlg 	1e8
scalar . 	lambda 	100
scalar . 	mytime 	18000
scalar . 	rep 	0
scalar . 	ttl 	1000
scalar . 	variance 	0.05
scalar . 	window 	60
scalar abilene_nodelay_network.content_distribution 	repo-0 	5
scalar abilene_nodelay_network.content_distribution 	repo-1 	8
scalar abilene_nodelay_network.content_distribution 	repo-2 	9
scalar abilene_nodelay_network.content_distribution 	repo-3 	0
scalar abilene_nodelay_network.content_distribution 	repo-4 	1
scalar abilene_nodelay_network.content_distribution 	repo-5 	7
scalar abilene_nodelay_network.content_distribution 	repo-6 	6
scalar abilene_nodelay_network.content_distribution 	repo-7 	2
scalar abilene_nodelay_network.content_distribution 	repo-8 	4
scalar abilene_nodelay_network.content_distribution 	repo-9 	10
scalar abilene_nodelay_network.content_distribution 	repo-10 	3
scalar abilene_nodelay_network.content_distribution 	client-0 	10
scalar abilene_nodelay_network.content_distribution 	client-1 	9
scalar abilene_nodelay_network.content_distribution 	client-2 	8
scalar abilene_nodelay_network.content_distribution 	client-3 	7
scalar abilene_nodelay_network.content_distribution 	client-4 	3
scalar abilene_nodelay_network.content_distribution 	client-5 	6
scalar abilene_nodelay_network.content_distribution 	client-6 	5
scalar abilene_nodelay_network.content_distribution 	client-7 	1
scalar abilene_nodelay_network.content_distribution 	client-8 	4
scalar abilene_nodelay_network.content_distribution 	client-9 	0
scalar abilene_nodelay_network.content_distribution 	client-10 	2
scalar abilene_nodelay_network.content_distribution 	repo-0_card 	9095979
scalar abilene_nodelay_network.content_distribution 	repo-0_price 	0
scalar abilene_nodelay_network.content_distribution 	repo-1_card 	9088625
scalar abilene_nodelay_network.content_distribution 	repo-1_price 	0
scalar abilene_nodelay_network.content_distribution 	repo-2_card 	9091688
scalar abilene_nodelay_network.content_distribution 	repo-2_price 	0
scalar abilene_nodelay_network.content_distribution 	repo-3_card 	9088505
scalar abilene_nodelay_network.content_distribution 	repo-3_price 	0
scalar abilene_nodelay_network.content_distribution 	repo-4_card 	9088374
scalar abilene_nodelay_network.content_distribution 	repo-4_price 	0
scalar abilene_nodelay_network.content_distribution 	repo-5_card 	9091947
scalar abilene_nodelay_network.content_distribution 	repo-5_price 	0
scalar abilene_nodelay_network.content_distribution 	repo-6_card 	9088127
scalar abilene_nodelay_network.content_distribution 	repo-6_price 	0
scalar abilene_nodelay_network.content_distribution 	repo-7_card 	9091123
scalar abilene_nodelay_network.content_distribution 	repo-7_price 	0
scalar abilene_nodelay_network.content_distribution 	repo-8_card 	9090920
scalar abilene_nodelay_network.content_distribution 	repo-8_price 	0
scalar abilene_nodelay_network.content_distribution 	repo-9_card 	9093199
scalar abilene_nodelay_network.content_distribution 	repo-9_price 	0
scalar abilene_nodelay_network.content_distribution 	repo-10_card 	9091513
scalar abilene_nodelay_network.content_distribution 	repo-10_price 	0
scalar abilene_nodelay_network.statistics 	stabilization_time 	36060
scalar abilene_nodelay_network.statistics 	p_hit 	0.4777700618568
scalar abilene_nodelay_network.statistics 	interests 	2709601.4545455
scalar abilene_nodelay_network.statistics 	data 	909853.27272727
scalar abilene_nodelay_network.statistics 	hdistance 	0.78626234765149
scalar abilene_nodelay_network.statistics 	avg_time 	0
scalar abilene_nodelay_network.statistics 	downloads 	19797230
scalar abilene_nodelay_network.statistics 	total_cost 	0
scalar abilene_nodelay_network.statistics 	total_replicas 	100000000
scalar abilene_nodelay_network.statistics 	"representations_downloaded 1:" 	0
scalar abilene_nodelay_network.statistics 	"slots_per_representation 100:" 	0
scalar abilene_nodelay_network.statistics 	inner_hit 	0.71930421579181
scalar abilene_nodelay_network.statistics 	execution_time 	1505
scalar abilene_nodelay_network.node[0].core_layer 	interests[0] 	2116751
scalar abilene_nodelay_network.node[0].core_layer 	repo_load[0] 	459978
scalar abilene_nodelay_network.node[0].core_layer 	data[0] 	471361
scalar abilene_nodelay_network.node[0].core_layer 	slots_sent[face$o[1]->client[0]] 	179801200
scalar abilene_nodelay_network.node[0].core_layer 	slots_sent[face$o[2]->node[1]] 	23664300
scalar abilene_nodelay_network.node[0].core_layer 	slots_sent[face$o[3]->node[10]] 	8209600
scalar abilene_nodelay_network.node[0].content_store 	p_hit[0] 	0.56001485295153
scalar abilene_nodelay_network.node[0].content_store 	hits[0] 	1185412
scalar abilene_nodelay_network.node[0].content_store 	misses[0] 	931339
scalar abilene_nodelay_network.node[0].content_store 	decision_yes[0] 	471361
scalar abilene_nodelay_network.node[0].content_store 	decision_no[0] 	459978
scalar abilene_nodelay_network.node[0].content_store 	decision_ratio[0] 	0.50611109381224
scalar abilene_nodelay_network.node[1].core_layer 	interests[1] 	3016263
scalar abilene_nodelay_network.node[1].core_layer 	repo_load[1] 	527411
scalar abilene_nodelay_network.node[1].core_layer 	data[1] 	1149766
scalar abilene_nodelay_network.node[1].core_layer 	slots_sent[face$o[1]->client[1]] 	179786900
scalar abilene_nodelay_network.node[1].core_layer 	slots_sent[face$o[2]->node[0]] 	37655700
scalar abilene_nodelay_network.node[1].core_layer 	slots_sent[face$o[3]->node[10]] 	27154700
scalar abilene_nodelay_network.node[1].core_layer 	slots_sent[face$o[4]->node[2]] 	57029000
scalar abilene_nodelay_network.node[1].content_store 	p_hit[1] 	0.44395531821993
scalar abilene_nodelay_network.node[1].content_store 	hits[1] 	1339086
scalar abilene_nodelay_network.node[1].content_store 	misses[1] 	1677177
scalar abilene_nodelay_network.node[1].content_store 	decision_yes[1] 	1149766
scalar abilene_nodelay_network.node[1].content_store 	decision_no[1] 	527411
scalar abilene_nodelay_network.node[1].content_store 	decision_ratio[1] 	0.68553646991343
scalar abilene_nodelay_network.node[2].core_layer 	interests[2] 	3621197
scalar abilene_nodelay_network.node[2].core_layer 	repo_load[2] 	561040
scalar abilene_nodelay_network.node[2].core_layer 	data[2] 	1598898
scalar abilene_nodelay_network.node[2].core_layer 	slots_sent[face$o[1]->client[2]] 	179962400
scalar abilene_nodelay_network.node[2].core_layer 	slots_sent[face$o[2]->node[1]] 	69886800
scalar abilene_nodelay_network.node[2].core_layer 	slots_sent[face$o[3]->node[3]] 	78126300
scalar abilene_nodelay_network.node[2].core_layer 	slots_sent[face$o[4]->node[8]] 	34144200
scalar abilene_nodelay_network.node[2].content_store 	p_hit[2] 	0.40352927498835
scalar abilene_nodelay_network.node[2].content_store 	hits[2] 	1461259
scalar abilene_nodelay_network.node[2].content_store 	misses[2] 	2159938
scalar abilene_nodelay_network.node[2].content_store 	decision_yes[2] 	1598898
scalar abilene_nodelay_network.node[2].content_store 	decision_no[2] 	561040
scalar abilene_nodelay_network.node[2].content_store 	decision_ratio[2] 	0.74025180352399
scalar abilene_nodelay_network.node[3].core_layer 	interests[3] 	3482615
scalar abilene_nodelay_network.node[3].core_layer 	repo_load[3] 	501992
scalar abilene_nodelay_network.node[3].core_layer 	data[3] 	1490982
scalar abilene_nodelay_network.node[3].core_layer 	slots_sent[face$o[1]->client[3]] 	180110200
scalar abilene_nodelay_network.node[3].core_layer 	slots_sent[face$o[2]->node[2]] 	74858300
scalar abilene_nodelay_network.node[3].core_layer 	slots_sent[face$o[3]->node[4]] 	55496200
scalar abilene_nodelay_network.node[3].core_layer 	slots_sent[face$o[4]->node[7]] 	37796800
scalar abilene_nodelay_network.node[3].content_store 	p_hit[3] 	0.42773634180063
scalar abilene_nodelay_network.node[3].content_store 	hits[3] 	1489641
scalar abilene_nodelay_network.node[3].content_store 	misses[3] 	1992974
scalar abilene_nodelay_network.node[3].content_store 	decision_yes[3] 	1490982
scalar abilene_nodelay_network.node[3].content_store 	decision_no[3] 	501992
scalar abilene_nodelay_network.node[3].content_store 	decision_ratio[3] 	0.74811914254777
scalar abilene_nodelay_network.node[4].core_layer 	interests[4] 	2520898
scalar abilene_nodelay_network.node[4].core_layer 	repo_load[4] 	460528
scalar abilene_nodelay_network.node[4].core_layer 	data[4] 	793768
scalar abilene_nodelay_network.node[4].core_layer 	slots_sent[face$o[1]->client[4]] 	180017100
scalar abilene_nodelay_network.node[4].core_layer 	slots_sent[face$o[2]->node[3]] 	40214800
scalar abilene_nodelay_network.node[4].core_layer 	slots_sent[face$o[3]->node[5]] 	31857900
scalar abilene_nodelay_network.node[4].content_store 	p_hit[4] 	0.50244079689063
scalar abilene_nodelay_network.node[4].content_store 	hits[4] 	1266602
scalar abilene_nodelay_network.node[4].content_store 	misses[4] 	1254296
scalar abilene_nodelay_network.node[4].content_store 	decision_yes[4] 	793768
scalar abilene_nodelay_network.node[4].content_store 	decision_no[4] 	460528
scalar abilene_nodelay_network.node[4].content_store 	decision_ratio[4] 	0.63283945735297
scalar abilene_nodelay_network.node[5].core_layer 	interests[5] 	2226602
scalar abilene_nodelay_network.node[5].core_layer 	repo_load[5] 	569752
scalar abilene_nodelay_network.node[5].core_layer 	data[5] 	541871
scalar abilene_nodelay_network.node[5].core_layer 	slots_sent[face$o[1]->client[5]] 	179932700
scalar abilene_nodelay_network.node[5].core_layer 	slots_sent[face$o[2]->node[4]] 	23880600
scalar abilene_nodelay_network.node[5].core_layer 	slots_sent[face$o[3]->node[6]] 	18846900
scalar abilene_nodelay_network.node[5].content_store 	p_hit[5] 	0.50075361470079
scalar abilene_nodelay_network.node[5].content_store 	hits[5] 	1114979
scalar abilene_nodelay_network.node[5].content_store 	misses[5] 	1111623
scalar abilene_nodelay_network.node[5].content_store 	decision_yes[5] 	541871
scalar abilene_nodelay_network.node[5].content_store 	decision_no[5] 	569752
scalar abilene_nodelay_network.node[5].content_store 	decision_ratio[5] 	0.48745932748783
scalar abilene_nodelay_network.node[6].core_layer 	interests[6] 	2370082
scalar abilene_nodelay_network.node[6].core_layer 	repo_load[6] 	464074
scalar abilene_nodelay_network.node[6].core_layer 	data[6] 	671236
scalar abilene_nodelay_network.node[6].core_layer 	slots_sent[face$o[1]->client[6]] 	179853500
scalar abilene_nodelay_network.node[6].core_layer 	slots_sent[face$o[2]->node[5]] 	22329200
scalar abilene_nodelay_network.node[6].core_layer 	slots_sent[face$o[3]->node[7]] 	34825500
scalar abilene_nodelay_network.node[6].content_store 	p_hit[6] 	0.52098281831599
scalar abilene_nodelay_network.node[6].content_store 	hits[6] 	1234772
scalar abilene_nodelay_network.node[6].content_store 	misses[6] 	1135310
scalar abilene_nodelay_network.node[6].content_store 	decision_yes[6] 	671236
scalar abilene_nodelay_network.node[6].content_store 	decision_no[6] 	464074
scalar abilene_nodelay_network.node[6].content_store 	decision_ratio[6] 	0.59123587390228
scalar abilene_nodelay_network.node[7].core_layer 	interests[7] 	2897699
scalar abilene_nodelay_network.node[7].core_layer 	repo_load[7] 	495672
scalar abilene_nodelay_network.node[7].core_layer 	data[7] 	1034111
scalar abilene_nodelay_network.node[7].core_layer 	slots_sent[face$o[1]->client[7]] 	179865900
scalar abilene_nodelay_network.node[7].core_layer 	slots_sent[face$o[2]->node[3]] 	30757100
scalar abilene_nodelay_network.node[7].core_layer 	slots_sent[face$o[3]->node[6]] 	48276700
scalar abilene_nodelay_network.node[7].core_layer 	slots_sent[face$o[4]->node[8]] 	30870200
scalar abilene_nodelay_network.node[7].content_store 	p_hit[7] 	0.47206973533138
scalar abilene_nodelay_network.node[7].content_store 	hits[7] 	1367916
scalar abilene_nodelay_network.node[7].content_store 	misses[7] 	1529783
scalar abilene_nodelay_network.node[7].content_store 	decision_yes[7] 	1034111
scalar abilene_nodelay_network.node[7].content_store 	decision_no[7] 	495672
scalar abilene_nodelay_network.node[7].content_store 	decision_ratio[7] 	0.67598541753961
scalar abilene_nodelay_network.node[8].core_layer 	interests[8] 	2824757
scalar abilene_nodelay_network.node[8].core_layer 	repo_load[8] 	488508
scalar abilene_nodelay_network.node[8].core_layer 	data[8] 	977196
scalar abilene_nodelay_network.node[8].core_layer 	slots_sent[face$o[1]->client[8]] 	180128100
scalar abilene_nodelay_network.node[8].core_layer 	slots_sent[face$o[2]->node[2]] 	28002500
scalar abilene_nodelay_network.node[8].core_layer 	slots_sent[face$o[3]->node[7]] 	30788800
scalar abilene_nodelay_network.node[8].core_layer 	slots_sent[face$o[4]->node[9]] 	43556300
scalar abilene_nodelay_network.node[8].content_store 	p_hit[8] 	0.48112209298003
scalar abilene_nodelay_network.node[8].content_store 	hits[8] 	1359053
scalar abilene_nodelay_network.node[8].content_store 	misses[8] 	1465704
scalar abilene_nodelay_network.node[8].content_store 	decision_yes[8] 	977196
scalar abilene_nodelay_network.node[8].content_store 	decision_no[8] 	488508
scalar abilene_nodelay_network.node[8].content_store 	decision_ratio[8] 	0.66670760262645
scalar abilene_nodelay_network.node[9].core_layer 	interests[9] 	2382853
scalar abilene_nodelay_network.node[9].core_layer 	repo_load[9] 	485663
scalar abilene_nodelay_network.node[9].core_layer 	data[9] 	671005
scalar abilene_nodelay_network.node[9].core_layer 	slots_sent[face$o[1]->client[9]] 	180125200
scalar abilene_nodelay_network.node[9].core_layer 	slots_sent[face$o[2]->node[10]] 	25454900
scalar abilene_nodelay_network.node[9].core_layer 	slots_sent[face$o[3]->node[8]] 	32705200
scalar abilene_nodelay_network.node[9].content_store 	p_hit[9] 	0.51458692584058
scalar abilene_nodelay_network.node[9].content_store 	hits[9] 	1226185
scalar abilene_nodelay_network.node[9].content_store 	misses[9] 	1156668
scalar abilene_nodelay_network.node[9].content_store 	decision_yes[9] 	671005
scalar abilene_nodelay_network.node[9].content_store 	decision_no[9] 	485663
scalar abilene_nodelay_network.node[9].content_store 	decision_ratio[9] 	0.5801189278168
scalar abilene_nodelay_network.node[10].core_layer 	interests[10] 	2345899
scalar abilene_nodelay_network.node[10].core_layer 	repo_load[10] 	542381
scalar abilene_nodelay_network.node[10].core_layer 	data[10] 	608192
scalar abilene_nodelay_network.node[10].core_layer 	slots_sent[face$o[1]->client[10]] 	180139800
scalar abilene_nodelay_network.node[10].core_layer 	slots_sent[face$o[2]->node[0]] 	9480400
scalar abilene_nodelay_network.node[10].core_layer 	slots_sent[face$o[3]->node[1]] 	21425500
scalar abilene_nodelay_network.node[10].core_layer 	slots_sent[face$o[4]->node[9]] 	23544200
scalar abilene_nodelay_network.node[10].content_store 	p_hit[10] 	0.50953856069677
scalar abilene_nodelay_network.node[10].content_store 	hits[10] 	1195326
scalar abilene_nodelay_network.node[10].content_store 	misses[10] 	1150573
scalar abilene_nodelay_network.node[10].content_store 	decision_yes[10] 	608192
scalar abilene_nodelay_network.node[10].content_store 	decision_no[10] 	542381
scalar abilene_nodelay_network.node[10].content_store 	decision_ratio[10] 	0.52859922838447
scalar abilene_nodelay_network.client[0] 	hdistance[0].real 	0.93586472170375
scalar abilene_nodelay_network.client[0] 	downloads[0].real 	1798012
scalar abilene_nodelay_network.client[0] 	avg_time[0].real 	0
scalar abilene_nodelay_network.client[1] 	hdistance[1].real 	0.74105955439469
scalar abilene_nodelay_network.client[1] 	downloads[1].real 	1797869
scalar abilene_nodelay_network.client[1] 	avg_time[1].real 	0
scalar abilene_nodelay_network.client[2] 	hdistance[2].real 	0.63361013189424
scalar abilene_nodelay_network.client[2] 	downloads[2].real 	1799624
scalar abilene_nodelay_network.client[2] 	avg_time[2].real 	0
scalar abilene_nodelay_network.client[3] 	hdistance[3].real 	0.63069831691928
scalar abilene_nodelay_network.client[3] 	downloads[3].real 	1801102
scalar abilene_nodelay_network.client[3] 	avg_time[3].real 	0
scalar abilene_nodelay_network.client[4] 	hdistance[4].real 	0.81516478156795
scalar abilene_nodelay_network.client[4] 	downloads[4].real 	1800171
scalar abilene_nodelay_network.client[4] 	avg_time[4].real 	0
scalar abilene_nodelay_network.client[5] 	hdistance[5].real 	0.99432732349365
scalar abilene_nodelay_network.client[5] 	downloads[5].real 	1799327
scalar abilene_nodelay_network.client[5] 	avg_time[5].real 	0
scalar abilene_nodelay_network.client[6] 	hdistance[6].real 	0.86959831195945
scalar abilene_nodelay_network.client[6] 	downloads[6].real 	1798535
scalar abilene_nodelay_network.client[6] 	avg_time[6].real 	0
scalar abilene_nodelay_network.client[7] 	hdistance[7].real 	0.67905756455224
scalar abilene_nodelay_network.client[7] 	downloads[7].real 	1798659
scalar abilene_nodelay_network.client[7] 	avg_time[7].real 	0
scalar abilene_nodelay_network.client[8] 	hdistance[8].real 	0.65618967834557
scalar abilene_nodelay_network.client[8] 	downloads[8].real 	1801281
scalar abilene_nodelay_network.client[8] 	avg_time[8].real 	0
scalar abilene_nodelay_network.client[9] 	hdistance[9].real 	0.82223142569724
scalar abilene_nodelay_network.client[9] 	downloads[9].real 	1801252
scalar abilene_nodelay_network.client[9] 	avg_time[9].real 	0
scalar abilene_nodelay_network.client[10] 	hdistance[10].real 	0.8710840136383
scalar abilene_nodelay_network.client[10] 	downloads[10].real 	1801398
scalar abilene_nodelay_network.client[10] 	avg_time[10].real 	0
