version 2
run General-8-20141007-11:09:26-463
attr D fix0.005
attr F spr
attr R lru
attr a 1
attr configname General
attr csize 1e3
attr ctlg 1e5
attr datetime 20141007-11:09:26
attr experiment General
attr inifile omnetpp.ini
attr iterationvars "$net=abilene_cost, $rep=4, $priceratiovalue=10, $weights=0.333_0.333_0.334, $lambda=100, $a=1, $ctlg=1e5, $F=spr, $ttl=10, $D=fix0.005, $xi=1, $R=lru, $csize=1e3, $pricebits=0, $window=60, $variance=0.05, $mytime=1800"
attr iterationvars2 "$net=abilene_cost, $rep=4, $priceratiovalue=10, $weights=0.333_0.333_0.334, $lambda=100, $a=1, $ctlg=1e5, $F=spr, $ttl=10, $D=fix0.005, $xi=1, $R=lru, $csize=1e3, $pricebits=0, $window=60, $variance=0.05, $mytime=1800, $repetition=0"
attr lambda 100
attr measurement "$net=abilene_cost, $rep=4, $priceratiovalue=10, $weights=0.333_0.333_0.334, $lambda=100, $a=1, $ctlg=1e5, $F=spr, $ttl=10, $D=fix0.005, $xi=1, $R=lru, $csize=1e3, $pricebits=0, $window=60, $variance=0.05, $mytime=1800"
attr mytime 1800
attr net abilene_cost
attr network networks.${net=abilene_cost,geant_cost}_network
attr pricebits 0
attr priceratiovalue 10
attr processid 463
attr rep 4
attr repetition 0
attr replication #0
attr resultdir results
attr runnumber 8
attr seedset 4
attr ttl 10
attr variance 0.05
attr weights 0.333_0.333_0.334
attr window 60
attr xi 1

scalar . 	a 	1
scalar . 	csize 	1e3
scalar . 	ctlg 	1e5
scalar . 	lambda 	100
scalar . 	mytime 	1800
scalar . 	pricebits 	0
scalar . 	priceratiovalue 	10
scalar . 	rep 	4
scalar . 	ttl 	10
scalar . 	variance 	0.05
scalar . 	window 	60
scalar . 	xi 	1
scalar abilene_cost_network.content_distribution 	repo-0 	2
scalar abilene_cost_network.content_distribution 	repo-1 	0
scalar abilene_cost_network.content_distribution 	repo-2 	10
scalar abilene_cost_network.content_distribution 	client-0 	6
scalar abilene_cost_network.content_distribution 	client-1 	2
scalar abilene_cost_network.content_distribution 	client-2 	4
scalar abilene_cost_network.content_distribution 	repo-0_card 	33274
scalar abilene_cost_network.content_distribution 	repo-0_price 	0
scalar abilene_cost_network.content_distribution 	repo-1_card 	33153
scalar abilene_cost_network.content_distribution 	repo-1_price 	1
scalar abilene_cost_network.content_distribution 	repo-2_card 	33573
scalar abilene_cost_network.content_distribution 	repo-2_price 	10
scalar abilene_cost_network.statistics 	repo_popularity[0] 	0.33945880017902
scalar abilene_cost_network.statistics 	repo_popularity[1] 	0.30988277584688
scalar abilene_cost_network.statistics 	repo_popularity[2] 	0.35065842397411
scalar abilene_cost_network.statistics 	stabilization_time 	36060
scalar abilene_cost_network.statistics 	p_hit 	0.19055503085883
scalar abilene_cost_network.statistics 	interests 	127442.54545455
scalar abilene_cost_network.statistics 	data 	78351.545454545
scalar abilene_cost_network.statistics 	hdistance 	2.1014437210494
scalar abilene_cost_network.statistics 	avg_time 	0.009922579668
scalar abilene_cost_network.statistics 	downloads 	539941
scalar abilene_cost_network.statistics 	total_cost 	943605
scalar abilene_cost_network.statistics 	total_replicas 	100000
scalar abilene_cost_network.statistics 	inner_hit 	0.49483184273837
scalar abilene_cost_network.node[0].core_layer 	interests[0] 	87949
scalar abilene_cost_network.node[0].core_layer 	repo_load[0] 	82085
scalar abilene_cost_network.node[0].core_layer 	data[0] 	0
scalar abilene_cost_network.node[0].core_layer 	repo_int[0] 	272761
scalar abilene_cost_network.node[0].content_store 	p_hit[0] 	0.066675004832346
scalar abilene_cost_network.node[0].content_store 	hits[0] 	5864
scalar abilene_cost_network.node[0].content_store 	misses[0] 	82085
scalar abilene_cost_network.node[0].content_store 	decision_yes[0] 	405
scalar abilene_cost_network.node[0].content_store 	decision_no[0] 	81680
scalar abilene_cost_network.node[0].content_store 	decision_ratio[0] 	0.0049339099713711
scalar abilene_cost_network.node[1].core_layer 	interests[1] 	166783
scalar abilene_cost_network.node[1].core_layer 	data[1] 	154368
scalar abilene_cost_network.node[1].content_store 	p_hit[1] 	0.074444038061433
scalar abilene_cost_network.node[1].content_store 	hits[1] 	12416
scalar abilene_cost_network.node[1].content_store 	misses[1] 	154367
scalar abilene_cost_network.node[1].content_store 	decision_yes[1] 	749
scalar abilene_cost_network.node[1].content_store 	decision_no[1] 	153619
scalar abilene_cost_network.node[1].content_store 	decision_ratio[1] 	0.0048520418739635
scalar abilene_cost_network.node[2].core_layer 	interests[2] 	344640
scalar abilene_cost_network.node[2].core_layer 	repo_load[2] 	104524
scalar abilene_cost_network.node[2].core_layer 	data[2] 	166784
scalar abilene_cost_network.node[2].content_store 	p_hit[2] 	0.21265378365831
scalar abilene_cost_network.node[2].content_store 	hits[2] 	73289
scalar abilene_cost_network.node[2].content_store 	misses[2] 	271351
scalar abilene_cost_network.node[2].content_store 	decision_yes[2] 	1293
scalar abilene_cost_network.node[2].content_store 	decision_no[2] 	270015
scalar abilene_cost_network.node[2].content_store 	decision_ratio[2] 	0.0047658012295988
scalar abilene_cost_network.node[3].core_layer 	interests[3] 	175204
scalar abilene_cost_network.node[3].core_layer 	data[3] 	164737
scalar abilene_cost_network.node[3].content_store 	p_hit[3] 	0.059661879865756
scalar abilene_cost_network.node[3].content_store 	hits[3] 	10453
scalar abilene_cost_network.node[3].content_store 	misses[3] 	164751
scalar abilene_cost_network.node[3].content_store 	decision_yes[3] 	783
scalar abilene_cost_network.node[3].content_store 	decision_no[3] 	163954
scalar abilene_cost_network.node[3].content_store 	decision_ratio[3] 	0.0047530305881496
scalar abilene_cost_network.node[4].core_layer 	interests[4] 	180072
scalar abilene_cost_network.node[4].core_layer 	data[4] 	107989
scalar abilene_cost_network.node[4].content_store 	p_hit[4] 	0.40016215735928
scalar abilene_cost_network.node[4].content_store 	hits[4] 	72058
scalar abilene_cost_network.node[4].content_store 	misses[4] 	108014
scalar abilene_cost_network.node[4].content_store 	decision_yes[4] 	565
scalar abilene_cost_network.node[4].content_store 	decision_no[4] 	107424
scalar abilene_cost_network.node[4].content_store 	decision_ratio[4] 	0.0052320143718342
scalar abilene_cost_network.node[5].core_layer 	interests[5] 	0
scalar abilene_cost_network.node[5].core_layer 	data[5] 	0
scalar abilene_cost_network.node[5].content_store 	p_hit[5] 	-nan
scalar abilene_cost_network.node[5].content_store 	hits[5] 	0
scalar abilene_cost_network.node[5].content_store 	misses[5] 	0
scalar abilene_cost_network.node[5].content_store 	decision_yes[5] 	0
scalar abilene_cost_network.node[5].content_store 	decision_no[5] 	0
scalar abilene_cost_network.node[5].content_store 	decision_ratio[5] 	0
scalar abilene_cost_network.node[6].core_layer 	interests[6] 	180033
scalar abilene_cost_network.node[6].core_layer 	data[6] 	108480
scalar abilene_cost_network.node[6].content_store 	p_hit[6] 	0.39727716585293
scalar abilene_cost_network.node[6].content_store 	hits[6] 	71523
scalar abilene_cost_network.node[6].content_store 	misses[6] 	108510
scalar abilene_cost_network.node[6].content_store 	decision_yes[6] 	569
scalar abilene_cost_network.node[6].content_store 	decision_no[6] 	107911
scalar abilene_cost_network.node[6].content_store 	decision_ratio[6] 	0.0052452064896755
scalar abilene_cost_network.node[7].core_layer 	interests[7] 	108478
scalar abilene_cost_network.node[7].core_layer 	data[7] 	101088
scalar abilene_cost_network.node[7].content_store 	p_hit[7] 	0.068142849241321
scalar abilene_cost_network.node[7].content_store 	hits[7] 	7392
scalar abilene_cost_network.node[7].content_store 	misses[7] 	101086
scalar abilene_cost_network.node[7].content_store 	decision_yes[7] 	465
scalar abilene_cost_network.node[7].content_store 	decision_no[7] 	100623
scalar abilene_cost_network.node[7].content_store 	decision_ratio[7] 	0.0045999525166192
scalar abilene_cost_network.node[8].core_layer 	interests[8] 	33871
scalar abilene_cost_network.node[8].core_layer 	data[8] 	30515
scalar abilene_cost_network.node[8].content_store 	p_hit[8] 	0.099111334179682
scalar abilene_cost_network.node[8].content_store 	hits[8] 	3357
scalar abilene_cost_network.node[8].content_store 	misses[8] 	30514
scalar abilene_cost_network.node[8].content_store 	decision_yes[8] 	149
scalar abilene_cost_network.node[8].content_store 	decision_no[8] 	30366
scalar abilene_cost_network.node[8].content_store 	decision_ratio[8] 	0.0048828445027036
scalar abilene_cost_network.node[9].core_layer 	interests[9] 	30514
scalar abilene_cost_network.node[9].core_layer 	data[9] 	27906
scalar abilene_cost_network.node[9].content_store 	p_hit[9] 	0.085501736907649
scalar abilene_cost_network.node[9].content_store 	hits[9] 	2609
scalar abilene_cost_network.node[9].content_store 	misses[9] 	27905
scalar abilene_cost_network.node[9].content_store 	decision_yes[9] 	170
scalar abilene_cost_network.node[9].content_store 	decision_no[9] 	27736
scalar abilene_cost_network.node[9].content_store 	decision_ratio[9] 	0.0060918798824626
scalar abilene_cost_network.node[10].core_layer 	interests[10] 	94324
scalar abilene_cost_network.node[10].core_layer 	repo_load[10] 	86152
scalar abilene_cost_network.node[10].core_layer 	data[10] 	0
scalar abilene_cost_network.node[10].content_store 	p_hit[10] 	0.086637547177813
scalar abilene_cost_network.node[10].content_store 	hits[10] 	8172
scalar abilene_cost_network.node[10].content_store 	misses[10] 	86152
scalar abilene_cost_network.node[10].content_store 	decision_yes[10] 	435
scalar abilene_cost_network.node[10].content_store 	decision_no[10] 	85717
scalar abilene_cost_network.node[10].content_store 	decision_ratio[10] 	0.0050492153403287
scalar abilene_cost_network.client[2] 	hdistance[2] 	1.3092594960281
scalar abilene_cost_network.client[2] 	downloads[2] 	179891
scalar abilene_cost_network.client[2] 	avg_time[2] 	0.006192053579
scalar abilene_cost_network.client[4] 	hdistance[4] 	2.3662432587047
scalar abilene_cost_network.client[4] 	downloads[4] 	180047
scalar abilene_cost_network.client[4] 	avg_time[4] 	0.009528367084
scalar abilene_cost_network.client[6] 	hdistance[6] 	2.6288284084155
scalar abilene_cost_network.client[6] 	downloads[6] 	180003
scalar abilene_cost_network.client[6] 	avg_time[6] 	0.014047318342
