version 2
run General-8-20141007-10:59:24-14900
attr D fix0.005
attr F spr
attr R lru
attr a 1
attr configname General
attr csize 1e3
attr ctlg 1e5
attr datetime 20141007-10:59:24
attr experiment General
attr inifile omnetpp.ini
attr iterationvars "$net=abilene_cost, $rep=5, $priceratiovalue=10, $weights=0.333_0.333_0.334, $lambda=100, $a=1, $ctlg=1e5, $F=spr, $ttl=10, $D=fix0.005, $xi=1, $R=lru, $csize=1e3, $pricebits=0, $window=60, $variance=0.05, $mytime=1800"
attr iterationvars2 "$net=abilene_cost, $rep=5, $priceratiovalue=10, $weights=0.333_0.333_0.334, $lambda=100, $a=1, $ctlg=1e5, $F=spr, $ttl=10, $D=fix0.005, $xi=1, $R=lru, $csize=1e3, $pricebits=0, $window=60, $variance=0.05, $mytime=1800, $repetition=0"
attr lambda 100
attr measurement "$net=abilene_cost, $rep=5, $priceratiovalue=10, $weights=0.333_0.333_0.334, $lambda=100, $a=1, $ctlg=1e5, $F=spr, $ttl=10, $D=fix0.005, $xi=1, $R=lru, $csize=1e3, $pricebits=0, $window=60, $variance=0.05, $mytime=1800"
attr mytime 1800
attr net abilene_cost
attr network networks.${net=abilene_cost,geant_cost}_network
attr pricebits 0
attr priceratiovalue 10
attr processid 14900
attr rep 5
attr repetition 0
attr replication #0
attr resultdir results
attr runnumber 8
attr seedset 5
attr ttl 10
attr variance 0.05
attr weights 0.333_0.333_0.334
attr window 60
attr xi 1

scalar . 	a 	1
scalar . 	csize 	1e3
scalar . 	ctlg 	1e5
scalar . 	lambda 	100
scalar . 	mytime 	1800
scalar . 	pricebits 	0
scalar . 	priceratiovalue 	10
scalar . 	rep 	5
scalar . 	ttl 	10
scalar . 	variance 	0.05
scalar . 	window 	60
scalar . 	xi 	1
scalar abilene_cost_network.content_distribution 	repo-0 	9
scalar abilene_cost_network.content_distribution 	repo-1 	5
scalar abilene_cost_network.content_distribution 	repo-2 	1
scalar abilene_cost_network.content_distribution 	client-0 	4
scalar abilene_cost_network.content_distribution 	client-1 	9
scalar abilene_cost_network.content_distribution 	client-2 	0
scalar abilene_cost_network.content_distribution 	repo-0_card 	33098
scalar abilene_cost_network.content_distribution 	repo-0_price 	1
scalar abilene_cost_network.content_distribution 	repo-1_card 	33495
scalar abilene_cost_network.content_distribution 	repo-1_price 	10
scalar abilene_cost_network.content_distribution 	repo-2_card 	33407
scalar abilene_cost_network.content_distribution 	repo-2_price 	0
scalar abilene_cost_network.statistics 	repo_popularity[0] 	0.31037770261398
scalar abilene_cost_network.statistics 	repo_popularity[1] 	0.29913869324176
scalar abilene_cost_network.statistics 	repo_popularity[2] 	0.39048360414427
scalar abilene_cost_network.statistics 	stabilization_time 	1057.8
scalar abilene_cost_network.statistics 	p_hit 	0.2068330203023
scalar abilene_cost_network.statistics 	interests 	116892.27272727
scalar abilene_cost_network.statistics 	data 	67810.909090909
scalar abilene_cost_network.statistics 	hdistance 	1.8890722899895
scalar abilene_cost_network.statistics 	avg_time 	0.009144458339
scalar abilene_cost_network.statistics 	downloads 	539821
scalar abilene_cost_network.statistics 	total_cost 	955743
scalar abilene_cost_network.statistics 	total_replicas 	100000
scalar abilene_cost_network.statistics 	inner_hit 	0.49266516122937
scalar abilene_cost_network.node[0].core_layer 	interests[0] 	180039
scalar abilene_cost_network.node[0].core_layer 	data[0] 	108486
scalar abilene_cost_network.node[0].core_layer 	repo_int[0] 	273870
scalar abilene_cost_network.node[0].content_store 	p_hit[0] 	0.39723060003666
scalar abilene_cost_network.node[0].content_store 	hits[0] 	71517
scalar abilene_cost_network.node[0].content_store 	misses[0] 	108522
scalar abilene_cost_network.node[0].content_store 	decision_yes[0] 	565
scalar abilene_cost_network.node[0].content_store 	decision_no[0] 	107921
scalar abilene_cost_network.node[0].content_store 	decision_ratio[0] 	0.0052080452777317
scalar abilene_cost_network.node[1].core_layer 	interests[1] 	140081
scalar abilene_cost_network.node[1].core_layer 	repo_load[1] 	91272
scalar abilene_cost_network.node[1].core_layer 	data[1] 	34188
scalar abilene_cost_network.node[1].content_store 	p_hit[1] 	0.10437532570441
scalar abilene_cost_network.node[1].content_store 	hits[1] 	14621
scalar abilene_cost_network.node[1].content_store 	misses[1] 	125460
scalar abilene_cost_network.node[1].content_store 	decision_yes[1] 	622
scalar abilene_cost_network.node[1].content_store 	decision_no[1] 	124838
scalar abilene_cost_network.node[1].content_store 	decision_ratio[1] 	0.0049577554599075
scalar abilene_cost_network.node[2].core_layer 	interests[2] 	102125
scalar abilene_cost_network.node[2].core_layer 	data[2] 	96935
scalar abilene_cost_network.node[2].content_store 	p_hit[2] 	0.050820073439412
scalar abilene_cost_network.node[2].content_store 	hits[2] 	5190
scalar abilene_cost_network.node[2].content_store 	misses[2] 	96935
scalar abilene_cost_network.node[2].content_store 	decision_yes[2] 	503
scalar abilene_cost_network.node[2].content_store 	decision_no[2] 	96432
scalar abilene_cost_network.node[2].content_store 	decision_ratio[2] 	0.0051890442048796
scalar abilene_cost_network.node[3].core_layer 	interests[3] 	106451
scalar abilene_cost_network.node[3].core_layer 	data[3] 	99474
scalar abilene_cost_network.node[3].content_store 	p_hit[3] 	0.065541892513927
scalar abilene_cost_network.node[3].content_store 	hits[3] 	6977
scalar abilene_cost_network.node[3].content_store 	misses[3] 	99474
scalar abilene_cost_network.node[3].content_store 	decision_yes[3] 	509
scalar abilene_cost_network.node[3].content_store 	decision_no[3] 	98965
scalar abilene_cost_network.node[3].content_store 	decision_ratio[3] 	0.0051169149727567
scalar abilene_cost_network.node[4].core_layer 	interests[4] 	211525
scalar abilene_cost_network.node[4].core_layer 	data[4] 	140037
scalar abilene_cost_network.node[4].content_store 	p_hit[4] 	0.33786077295828
scalar abilene_cost_network.node[4].content_store 	hits[4] 	71466
scalar abilene_cost_network.node[4].content_store 	misses[4] 	140059
scalar abilene_cost_network.node[4].content_store 	decision_yes[4] 	663
scalar abilene_cost_network.node[4].content_store 	decision_no[4] 	139374
scalar abilene_cost_network.node[4].content_store 	decision_ratio[4] 	0.0047344630347694
scalar abilene_cost_network.node[5].core_layer 	interests[5] 	95132
scalar abilene_cost_network.node[5].core_layer 	repo_load[5] 	85905
scalar abilene_cost_network.node[5].core_layer 	data[5] 	0
scalar abilene_cost_network.node[5].content_store 	p_hit[5] 	0.096991548585124
scalar abilene_cost_network.node[5].content_store 	hits[5] 	9227
scalar abilene_cost_network.node[5].content_store 	misses[5] 	85905
scalar abilene_cost_network.node[5].content_store 	decision_yes[5] 	431
scalar abilene_cost_network.node[5].content_store 	decision_no[5] 	85474
scalar abilene_cost_network.node[5].content_store 	decision_ratio[5] 	0.0050171701297945
scalar abilene_cost_network.node[6].core_layer 	interests[6] 	31128
scalar abilene_cost_network.node[6].core_layer 	data[6] 	29174
scalar abilene_cost_network.node[6].content_store 	p_hit[6] 	0.062773066049859
scalar abilene_cost_network.node[6].content_store 	hits[6] 	1954
scalar abilene_cost_network.node[6].content_store 	misses[6] 	29174
scalar abilene_cost_network.node[6].content_store 	decision_yes[6] 	151
scalar abilene_cost_network.node[6].content_store 	decision_no[6] 	29023
scalar abilene_cost_network.node[6].content_store 	decision_ratio[6] 	0.0051758415027079
scalar abilene_cost_network.node[7].core_layer 	interests[7] 	33525
scalar abilene_cost_network.node[7].core_layer 	data[7] 	31128
scalar abilene_cost_network.node[7].content_store 	p_hit[7] 	0.071498881431767
scalar abilene_cost_network.node[7].content_store 	hits[7] 	2397
scalar abilene_cost_network.node[7].content_store 	misses[7] 	31128
scalar abilene_cost_network.node[7].content_store 	decision_yes[7] 	160
scalar abilene_cost_network.node[7].content_store 	decision_no[7] 	30968
scalar abilene_cost_network.node[7].content_store 	decision_ratio[7] 	0.0051400668208687
scalar abilene_cost_network.node[8].core_layer 	interests[8] 	68275
scalar abilene_cost_network.node[8].core_layer 	data[8] 	63953
scalar abilene_cost_network.node[8].content_store 	p_hit[8] 	0.063302819480044
scalar abilene_cost_network.node[8].content_store 	hits[8] 	4322
scalar abilene_cost_network.node[8].content_store 	misses[8] 	63953
scalar abilene_cost_network.node[8].content_store 	decision_yes[8] 	367
scalar abilene_cost_network.node[8].content_store 	decision_no[8] 	63586
scalar abilene_cost_network.node[8].content_store 	decision_ratio[8] 	0.0057385892764999
scalar abilene_cost_network.node[9].core_layer 	interests[9] 	243319
scalar abilene_cost_network.node[9].core_layer 	repo_load[9] 	96693
scalar abilene_cost_network.node[9].core_layer 	data[9] 	75092
scalar abilene_cost_network.node[9].content_store 	p_hit[9] 	0.29391868288132
scalar abilene_cost_network.node[9].content_store 	hits[9] 	71516
scalar abilene_cost_network.node[9].content_store 	misses[9] 	171803
scalar abilene_cost_network.node[9].content_store 	decision_yes[9] 	820
scalar abilene_cost_network.node[9].content_store 	decision_no[9] 	170965
scalar abilene_cost_network.node[9].content_store 	decision_ratio[9] 	0.0047734086212417
scalar abilene_cost_network.node[10].core_layer 	interests[10] 	74215
scalar abilene_cost_network.node[10].core_layer 	data[10] 	67453
scalar abilene_cost_network.node[10].content_store 	p_hit[10] 	0.091113656268948
scalar abilene_cost_network.node[10].content_store 	hits[10] 	6762
scalar abilene_cost_network.node[10].content_store 	misses[10] 	67453
scalar abilene_cost_network.node[10].content_store 	decision_yes[10] 	311
scalar abilene_cost_network.node[10].content_store 	decision_no[10] 	67142
scalar abilene_cost_network.node[10].content_store 	decision_ratio[10] 	0.0046106177634798
scalar abilene_cost_network.client[0] 	hdistance[0] 	2.0098887240769
scalar abilene_cost_network.client[0] 	downloads[0] 	180003
scalar abilene_cost_network.client[0] 	avg_time[0] 	0.010178280563
scalar abilene_cost_network.client[4] 	hdistance[4] 	2.0129911984353
scalar abilene_cost_network.client[4] 	downloads[4] 	179968
scalar abilene_cost_network.client[4] 	avg_time[4] 	0.008866766757
scalar abilene_cost_network.client[9] 	hdistance[9] 	1.6443369474562
scalar abilene_cost_network.client[9] 	downloads[9] 	179850
scalar abilene_cost_network.client[9] 	avg_time[9] 	0.008388327697
