version 2
run General-8-20141007-10:52:03-8397
attr D fix0.005
attr F spr
attr R lru
attr a 1
attr configname General
attr csize 1e3
attr ctlg 1e5
attr datetime 20141007-10:52:03
attr experiment General
attr inifile omnetpp.ini
attr iterationvars "$net=abilene_cost, $rep=1, $priceratiovalue=10, $weights=0.333_0.333_0.334, $lambda=100, $a=1, $ctlg=1e5, $F=spr, $ttl=10, $D=fix0.005, $xi=1, $R=lru, $csize=1e3, $pricebits=0, $window=60, $variance=0.05, $mytime=1800"
attr iterationvars2 "$net=abilene_cost, $rep=1, $priceratiovalue=10, $weights=0.333_0.333_0.334, $lambda=100, $a=1, $ctlg=1e5, $F=spr, $ttl=10, $D=fix0.005, $xi=1, $R=lru, $csize=1e3, $pricebits=0, $window=60, $variance=0.05, $mytime=1800, $repetition=0"
attr lambda 100
attr measurement "$net=abilene_cost, $rep=1, $priceratiovalue=10, $weights=0.333_0.333_0.334, $lambda=100, $a=1, $ctlg=1e5, $F=spr, $ttl=10, $D=fix0.005, $xi=1, $R=lru, $csize=1e3, $pricebits=0, $window=60, $variance=0.05, $mytime=1800"
attr mytime 1800
attr net abilene_cost
attr network networks.${net=abilene_cost,geant_cost}_network
attr pricebits 0
attr priceratiovalue 10
attr processid 8397
attr rep 1
attr repetition 0
attr replication #0
attr resultdir results
attr runnumber 8
attr seedset 1
attr ttl 10
attr variance 0.05
attr weights 0.333_0.333_0.334
attr window 60
attr xi 1

scalar . 	a 	1
scalar . 	csize 	1e3
scalar . 	ctlg 	1e5
scalar . 	lambda 	100
scalar . 	mytime 	1800
scalar . 	pricebits 	0
scalar . 	priceratiovalue 	10
scalar . 	rep 	1
scalar . 	ttl 	10
scalar . 	variance 	0.05
scalar . 	window 	60
scalar . 	xi 	1
scalar abilene_cost_network.content_distribution 	repo-0 	10
scalar abilene_cost_network.content_distribution 	repo-1 	7
scalar abilene_cost_network.content_distribution 	repo-2 	5
scalar abilene_cost_network.content_distribution 	client-0 	8
scalar abilene_cost_network.content_distribution 	client-1 	7
scalar abilene_cost_network.content_distribution 	client-2 	2
scalar abilene_cost_network.content_distribution 	repo-0_card 	33397
scalar abilene_cost_network.content_distribution 	repo-0_price 	0
scalar abilene_cost_network.content_distribution 	repo-1_card 	33041
scalar abilene_cost_network.content_distribution 	repo-1_price 	10
scalar abilene_cost_network.content_distribution 	repo-2_card 	33562
scalar abilene_cost_network.content_distribution 	repo-2_price 	1
scalar abilene_cost_network.statistics 	repo_popularity[0] 	0.36106327575467
scalar abilene_cost_network.statistics 	repo_popularity[1] 	0.3490006524958
scalar abilene_cost_network.statistics 	repo_popularity[2] 	0.28993607174955
scalar abilene_cost_network.statistics 	stabilization_time 	36060
scalar abilene_cost_network.statistics 	p_hit 	0.2364864747484
scalar abilene_cost_network.statistics 	interests 	104659.45454545
scalar abilene_cost_network.statistics 	data 	55582.545454545
scalar abilene_cost_network.statistics 	hdistance 	1.628018861548
scalar abilene_cost_network.statistics 	avg_time 	0.007296862615
scalar abilene_cost_network.statistics 	downloads 	539787
scalar abilene_cost_network.statistics 	total_cost 	1071869
scalar abilene_cost_network.statistics 	total_replicas 	100000
scalar abilene_cost_network.statistics 	inner_hit 	0.50443230385319
scalar abilene_cost_network.node[0].core_layer 	interests[0] 	0
scalar abilene_cost_network.node[0].core_layer 	data[0] 	0
scalar abilene_cost_network.node[0].core_layer 	repo_int[0] 	267501
scalar abilene_cost_network.node[0].content_store 	p_hit[0] 	-nan
scalar abilene_cost_network.node[0].content_store 	hits[0] 	0
scalar abilene_cost_network.node[0].content_store 	misses[0] 	0
scalar abilene_cost_network.node[0].content_store 	decision_yes[0] 	0
scalar abilene_cost_network.node[0].content_store 	decision_no[0] 	0
scalar abilene_cost_network.node[0].content_store 	decision_ratio[0] 	0
scalar abilene_cost_network.node[1].core_layer 	interests[1] 	36021
scalar abilene_cost_network.node[1].core_layer 	data[1] 	30817
scalar abilene_cost_network.node[1].content_store 	p_hit[1] 	0.14447128064185
scalar abilene_cost_network.node[1].content_store 	hits[1] 	5204
scalar abilene_cost_network.node[1].content_store 	misses[1] 	30817
scalar abilene_cost_network.node[1].content_store 	decision_yes[1] 	156
scalar abilene_cost_network.node[1].content_store 	decision_no[1] 	30661
scalar abilene_cost_network.node[1].content_store 	decision_ratio[1] 	0.005062141026057
scalar abilene_cost_network.node[2].core_layer 	interests[2] 	180760
scalar abilene_cost_network.node[2].core_layer 	data[2] 	107867
scalar abilene_cost_network.node[2].content_store 	p_hit[2] 	0.40318101349856
scalar abilene_cost_network.node[2].content_store 	hits[2] 	72879
scalar abilene_cost_network.node[2].content_store 	misses[2] 	107881
scalar abilene_cost_network.node[2].content_store 	decision_yes[2] 	497
scalar abilene_cost_network.node[2].content_store 	decision_no[2] 	107370
scalar abilene_cost_network.node[2].content_store 	decision_ratio[2] 	0.0046075259347159
scalar abilene_cost_network.node[3].core_layer 	interests[3] 	71845
scalar abilene_cost_network.node[3].core_layer 	data[3] 	65466
scalar abilene_cost_network.node[3].content_store 	p_hit[3] 	0.08878836383882
scalar abilene_cost_network.node[3].content_store 	hits[3] 	6379
scalar abilene_cost_network.node[3].content_store 	misses[3] 	65466
scalar abilene_cost_network.node[3].content_store 	decision_yes[3] 	324
scalar abilene_cost_network.node[3].content_store 	decision_no[3] 	65142
scalar abilene_cost_network.node[3].content_store 	decision_ratio[3] 	0.0049491339015672
scalar abilene_cost_network.node[4].core_layer 	interests[4] 	33203
scalar abilene_cost_network.node[4].core_layer 	data[4] 	30103
scalar abilene_cost_network.node[4].content_store 	p_hit[4] 	0.093365057374334
scalar abilene_cost_network.node[4].content_store 	hits[4] 	3100
scalar abilene_cost_network.node[4].content_store 	misses[4] 	30103
scalar abilene_cost_network.node[4].content_store 	decision_yes[4] 	163
scalar abilene_cost_network.node[4].content_store 	decision_no[4] 	29940
scalar abilene_cost_network.node[4].content_store 	decision_ratio[4] 	0.0054147427166728
scalar abilene_cost_network.node[5].core_layer 	interests[5] 	92041
scalar abilene_cost_network.node[5].core_layer 	repo_load[5] 	84959
scalar abilene_cost_network.node[5].core_layer 	data[5] 	0
scalar abilene_cost_network.node[5].content_store 	p_hit[5] 	0.076943970621788
scalar abilene_cost_network.node[5].content_store 	hits[5] 	7082
scalar abilene_cost_network.node[5].content_store 	misses[5] 	84959
scalar abilene_cost_network.node[5].content_store 	decision_yes[5] 	441
scalar abilene_cost_network.node[5].content_store 	decision_no[5] 	84518
scalar abilene_cost_network.node[5].content_store 	decision_ratio[5] 	0.0051907390623713
scalar abilene_cost_network.node[6].core_layer 	interests[6] 	72535
scalar abilene_cost_network.node[6].core_layer 	data[6] 	61938
scalar abilene_cost_network.node[6].content_store 	p_hit[6] 	0.14609498862618
scalar abilene_cost_network.node[6].content_store 	hits[6] 	10597
scalar abilene_cost_network.node[6].content_store 	misses[6] 	61938
scalar abilene_cost_network.node[6].content_store 	decision_yes[6] 	313
scalar abilene_cost_network.node[6].content_store 	decision_no[6] 	61625
scalar abilene_cost_network.node[6].content_store 	decision_ratio[6] 	0.0050534405373115
scalar abilene_cost_network.node[7].core_layer 	interests[7] 	285960
scalar abilene_cost_network.node[7].core_layer 	repo_load[7] 	98691
scalar abilene_cost_network.node[7].core_layer 	data[7] 	111546
scalar abilene_cost_network.node[7].content_store 	p_hit[7] 	0.26471534480347
scalar abilene_cost_network.node[7].content_store 	hits[7] 	75698
scalar abilene_cost_network.node[7].content_store 	misses[7] 	210262
scalar abilene_cost_network.node[7].content_store 	decision_yes[7] 	1047
scalar abilene_cost_network.node[7].content_store 	decision_no[7] 	209190
scalar abilene_cost_network.node[7].content_store 	decision_ratio[7] 	0.0049800938940339
scalar abilene_cost_network.node[8].core_layer 	interests[8] 	218606
scalar abilene_cost_network.node[8].core_layer 	data[8] 	142933
scalar abilene_cost_network.node[8].content_store 	p_hit[8] 	0.34593286552062
scalar abilene_cost_network.node[8].content_store 	hits[8] 	75623
scalar abilene_cost_network.node[8].content_store 	misses[8] 	142983
scalar abilene_cost_network.node[8].content_store 	decision_yes[8] 	678
scalar abilene_cost_network.node[8].content_store 	decision_no[8] 	142255
scalar abilene_cost_network.node[8].content_store 	decision_ratio[8] 	0.0047434812114767
scalar abilene_cost_network.node[9].core_layer 	interests[9] 	68728
scalar abilene_cost_network.node[9].core_layer 	data[9] 	60738
scalar abilene_cost_network.node[9].content_store 	p_hit[9] 	0.11625538354091
scalar abilene_cost_network.node[9].content_store 	hits[9] 	7990
scalar abilene_cost_network.node[9].content_store 	misses[9] 	60738
scalar abilene_cost_network.node[9].content_store 	decision_yes[9] 	276
scalar abilene_cost_network.node[9].content_store 	decision_no[9] 	60462
scalar abilene_cost_network.node[9].content_store 	decision_ratio[9] 	0.0045441074780203
scalar abilene_cost_network.node[10].core_layer 	interests[10] 	91555
scalar abilene_cost_network.node[10].core_layer 	repo_load[10] 	83851
scalar abilene_cost_network.node[10].core_layer 	data[10] 	0
scalar abilene_cost_network.node[10].content_store 	p_hit[10] 	0.084146141663481
scalar abilene_cost_network.node[10].content_store 	hits[10] 	7704
scalar abilene_cost_network.node[10].content_store 	misses[10] 	83851
scalar abilene_cost_network.node[10].content_store 	decision_yes[10] 	446
scalar abilene_cost_network.node[10].content_store 	decision_no[10] 	83405
scalar abilene_cost_network.node[10].content_store 	decision_ratio[10] 	0.0053189586289967
scalar abilene_cost_network.client[2] 	hdistance[2] 	1.7768747302845
scalar abilene_cost_network.client[2] 	downloads[2] 	180746
scalar abilene_cost_network.client[2] 	avg_time[2] 	0.007252204722
scalar abilene_cost_network.client[7] 	hdistance[7] 	1.4676970909273
scalar abilene_cost_network.client[7] 	downloads[7] 	179473
scalar abilene_cost_network.client[7] 	avg_time[7] 	0.006624668267
scalar abilene_cost_network.client[8] 	hdistance[8] 	1.6394847634323
scalar abilene_cost_network.client[8] 	downloads[8] 	179568
scalar abilene_cost_network.client[8] 	avg_time[8] 	0.008013714857
