version 2
run General-2-20150312-12:13:04-30603
attr D costaware0.01
attr F spr
attr R lru
attr a 1
attr configname General
attr csize 1e3
attr ctlg 1e5
attr datetime 20150312-12:13:04
attr experiment General
attr inifile omnetpp.ini
attr iterationvars "$rep=31, $net=geant_cost, $lambda=100, $a=1, $ctlg=1e5, $F=spr, $ttl=10, $D=costaware0.01, $R=lru, $csize=1e3, $window=60, $variance=0.05, $mytime=1800, $kappa=1, $priceratiovalue=10, $pricebits=0"
attr iterationvars2 "$rep=31, $net=geant_cost, $lambda=100, $a=1, $ctlg=1e5, $F=spr, $ttl=10, $D=costaware0.01, $R=lru, $csize=1e3, $window=60, $variance=0.05, $mytime=1800, $kappa=1, $priceratiovalue=10, $pricebits=0, $repetition=0"
attr kappa 1
attr lambda 100
attr measurement "$rep=31, $net=geant_cost, $lambda=100, $a=1, $ctlg=1e5, $F=spr, $ttl=10, $D=costaware0.01, $R=lru, $csize=1e3, $window=60, $variance=0.05, $mytime=1800, $kappa=1, $priceratiovalue=10, $pricebits=0"
attr mytime 1800
attr net geant_cost
attr network networks.${net=geant_cost}_network
attr pricebits 0
attr priceratiovalue 10
attr processid 30603
attr rep 31
attr repetition 0
attr replication #0
attr resultdir results
attr runnumber 2
attr seedset 31
attr ttl 10
attr variance 0.05
attr window 60

scalar . 	a 	1
scalar . 	csize 	1e3
scalar . 	ctlg 	1e5
scalar . 	kappa 	1
scalar . 	lambda 	100
scalar . 	mytime 	1800
scalar . 	pricebits 	0
scalar . 	priceratiovalue 	10
scalar . 	rep 	31
scalar . 	ttl 	10
scalar . 	variance 	0.05
scalar . 	window 	60
scalar geant_cost_network.content_distribution 	repo-0 	18
scalar geant_cost_network.content_distribution 	repo-1 	6
scalar geant_cost_network.content_distribution 	repo-2 	9
scalar geant_cost_network.content_distribution 	client-0 	18
scalar geant_cost_network.content_distribution 	client-1 	0
scalar geant_cost_network.content_distribution 	client-2 	5
scalar geant_cost_network.content_distribution 	client-3 	3
scalar geant_cost_network.content_distribution 	client-4 	19
scalar geant_cost_network.content_distribution 	client-5 	6
scalar geant_cost_network.content_distribution 	client-6 	16
scalar geant_cost_network.content_distribution 	client-7 	8
scalar geant_cost_network.content_distribution 	client-8 	7
scalar geant_cost_network.content_distribution 	client-9 	9
scalar geant_cost_network.content_distribution 	client-10 	14
scalar geant_cost_network.content_distribution 	client-11 	1
scalar geant_cost_network.content_distribution 	client-12 	10
scalar geant_cost_network.content_distribution 	client-13 	11
scalar geant_cost_network.content_distribution 	client-14 	15
scalar geant_cost_network.content_distribution 	client-15 	13
scalar geant_cost_network.content_distribution 	client-16 	2
scalar geant_cost_network.content_distribution 	client-17 	21
scalar geant_cost_network.content_distribution 	client-18 	17
scalar geant_cost_network.content_distribution 	client-19 	4
scalar geant_cost_network.content_distribution 	client-20 	20
scalar geant_cost_network.content_distribution 	client-21 	12
scalar geant_cost_network.content_distribution 	repo-0_card 	33255
scalar geant_cost_network.content_distribution 	repo-0_price 	0
scalar geant_cost_network.content_distribution 	repo-1_card 	33101
scalar geant_cost_network.content_distribution 	repo-1_price 	1
scalar geant_cost_network.content_distribution 	repo-2_card 	33644
scalar geant_cost_network.content_distribution 	repo-2_price 	10
scalar geant_cost_network.statistics 	repo_popularity[0] 	0.42294147566852
scalar geant_cost_network.statistics 	repo_popularity[1] 	0.26347583465029
scalar geant_cost_network.statistics 	repo_popularity[2] 	0.3135826896812
scalar geant_cost_network.statistics 	stabilization_time 	180
scalar geant_cost_network.statistics 	p_hit 	0.065482449247379
scalar geant_cost_network.statistics 	interests 	583077.81818182
scalar geant_cost_network.statistics 	data 	403064.22727273
scalar geant_cost_network.statistics 	hdistance 	3.1007510034752
scalar geant_cost_network.statistics 	avg_time 	0.01443739016
scalar geant_cost_network.statistics 	downloads 	3912309
scalar geant_cost_network.statistics 	total_cost 	7905573
scalar geant_cost_network.statistics 	total_replicas 	100000
scalar geant_cost_network.statistics 	inner_hit 	0.24803945700608
scalar geant_cost_network.statistics 	interests_sent 	3960295
scalar geant_cost_network.node[0].core_layer 	interests[0] 	180630
scalar geant_cost_network.node[0].core_layer 	data[0] 	167951
scalar geant_cost_network.node[0].core_layer 	repo_int[0] 	2941902
scalar geant_cost_network.node[0].content_store 	p_hit[0] 	0.024004871837458
scalar geant_cost_network.node[0].content_store 	hits[0] 	4336
scalar geant_cost_network.node[0].content_store 	misses[0] 	176294
scalar geant_cost_network.node[0].content_store 	decision_yes[0] 	926
scalar geant_cost_network.node[0].content_store 	decision_no[0] 	167025
scalar geant_cost_network.node[0].content_store 	decision_ratio[0] 	0.0055135128698251
scalar geant_cost_network.node[0].content_store 	cache_value[0] 	2.1378120533485
scalar geant_cost_network.node[0].content_store 	average_price_of_cache[0] 	9.0217391304348
scalar geant_cost_network.node[0].content_store 	correction_factor[0] 	0.0027225701061802
scalar geant_cost_network.node[0].content_store 	kappa[0] 	1
scalar geant_cost_network.node[1].core_layer 	interests[1] 	324614
scalar geant_cost_network.node[1].core_layer 	data[1] 	312444
scalar geant_cost_network.node[1].content_store 	p_hit[1] 	0.028054859001768
scalar geant_cost_network.node[1].content_store 	hits[1] 	9107
scalar geant_cost_network.node[1].content_store 	misses[1] 	315507
scalar geant_cost_network.node[1].content_store 	decision_yes[1] 	1908
scalar geant_cost_network.node[1].content_store 	decision_no[1] 	310536
scalar geant_cost_network.node[1].content_store 	decision_ratio[1] 	0.0061066943196221
scalar geant_cost_network.node[1].content_store 	cache_value[1] 	2.271311303895
scalar geant_cost_network.node[1].content_store 	average_price_of_cache[1] 	7.6521739130435
scalar geant_cost_network.node[1].content_store 	correction_factor[1] 	0.0027225701061802
scalar geant_cost_network.node[1].content_store 	kappa[1] 	1
scalar geant_cost_network.node[2].core_layer 	interests[2] 	179931
scalar geant_cost_network.node[2].core_layer 	data[2] 	173797
scalar geant_cost_network.node[2].content_store 	p_hit[2] 	0.017139903629725
scalar geant_cost_network.node[2].content_store 	hits[2] 	3084
scalar geant_cost_network.node[2].content_store 	misses[2] 	176847
scalar geant_cost_network.node[2].content_store 	decision_yes[2] 	926
scalar geant_cost_network.node[2].content_store 	decision_no[2] 	172871
scalar geant_cost_network.node[2].content_store 	decision_ratio[2] 	0.0053280551447954
scalar geant_cost_network.node[2].content_store 	cache_value[2] 	2.6146570846979
scalar geant_cost_network.node[2].content_store 	average_price_of_cache[2] 	9.4130434782609
scalar geant_cost_network.node[2].content_store 	correction_factor[2] 	0.0027225701061802
scalar geant_cost_network.node[2].content_store 	kappa[2] 	1
scalar geant_cost_network.node[3].core_layer 	interests[3] 	1027162
scalar geant_cost_network.node[3].core_layer 	data[3] 	951486
scalar geant_cost_network.node[3].content_store 	p_hit[3] 	0.056813822941269
scalar geant_cost_network.node[3].content_store 	hits[3] 	58357
scalar geant_cost_network.node[3].content_store 	misses[3] 	968805
scalar geant_cost_network.node[3].content_store 	decision_yes[3] 	4917
scalar geant_cost_network.node[3].content_store 	decision_no[3] 	946569
scalar geant_cost_network.node[3].content_store 	decision_ratio[3] 	0.005167706093416
scalar geant_cost_network.node[3].content_store 	cache_value[3] 	6.2290650599327
scalar geant_cost_network.node[3].content_store 	average_price_of_cache[3] 	9.2173913043478
scalar geant_cost_network.node[3].content_store 	correction_factor[3] 	0.0027225701061802
scalar geant_cost_network.node[3].content_store 	kappa[3] 	1
scalar geant_cost_network.node[4].core_layer 	interests[4] 	1245756
scalar geant_cost_network.node[4].core_layer 	data[4] 	1147313
scalar geant_cost_network.node[4].content_store 	p_hit[4] 	0.022266800240175
scalar geant_cost_network.node[4].content_store 	hits[4] 	27739
scalar geant_cost_network.node[4].content_store 	misses[4] 	1218017
scalar geant_cost_network.node[4].content_store 	decision_yes[4] 	4301
scalar geant_cost_network.node[4].content_store 	decision_no[4] 	1143012
scalar geant_cost_network.node[4].content_store 	decision_ratio[4] 	0.0037487590570315
scalar geant_cost_network.node[4].content_store 	cache_value[4] 	3.6542439901705
scalar geant_cost_network.node[4].content_store 	average_price_of_cache[4] 	10
scalar geant_cost_network.node[4].content_store 	correction_factor[4] 	0.0027225701061802
scalar geant_cost_network.node[4].content_store 	kappa[4] 	1
scalar geant_cost_network.node[5].core_layer 	interests[5] 	830047
scalar geant_cost_network.node[5].core_layer 	data[5] 	748870
scalar geant_cost_network.node[5].content_store 	p_hit[5] 	0.092564637906046
scalar geant_cost_network.node[5].content_store 	hits[5] 	76833
scalar geant_cost_network.node[5].content_store 	misses[5] 	753214
scalar geant_cost_network.node[5].content_store 	decision_yes[5] 	2312
scalar geant_cost_network.node[5].content_store 	decision_no[5] 	746558
scalar geant_cost_network.node[5].content_store 	decision_ratio[5] 	0.0030873182261274
scalar geant_cost_network.node[5].content_store 	cache_value[5] 	0.56801014074069
scalar geant_cost_network.node[5].content_store 	average_price_of_cache[5] 	1.9782608695652
scalar geant_cost_network.node[5].content_store 	correction_factor[5] 	0.0027225701061802
scalar geant_cost_network.node[5].content_store 	kappa[5] 	1
scalar geant_cost_network.node[6].core_layer 	interests[6] 	1023203
scalar geant_cost_network.node[6].core_layer 	repo_load[6] 	696753
scalar geant_cost_network.node[6].core_layer 	data[6] 	130709
scalar geant_cost_network.node[6].content_store 	p_hit[6] 	0.18953228245031
scalar geant_cost_network.node[6].content_store 	hits[6] 	193930
scalar geant_cost_network.node[6].content_store 	misses[6] 	829273
scalar geant_cost_network.node[6].content_store 	decision_yes[6] 	2796
scalar geant_cost_network.node[6].content_store 	decision_no[6] 	824666
scalar geant_cost_network.node[6].content_store 	decision_ratio[6] 	0.0033790071326538
scalar geant_cost_network.node[6].content_store 	cache_value[6] 	0.89441712255894
scalar geant_cost_network.node[6].content_store 	average_price_of_cache[6] 	2.1739130434783
scalar geant_cost_network.node[6].content_store 	correction_factor[6] 	0.0027225701061802
scalar geant_cost_network.node[6].content_store 	kappa[6] 	1
scalar geant_cost_network.node[7].core_layer 	interests[7] 	813763
scalar geant_cost_network.node[7].core_layer 	data[7] 	744437
scalar geant_cost_network.node[7].content_store 	p_hit[7] 	0.074889126195219
scalar geant_cost_network.node[7].content_store 	hits[7] 	60942
scalar geant_cost_network.node[7].content_store 	misses[7] 	752821
scalar geant_cost_network.node[7].content_store 	decision_yes[7] 	6373
scalar geant_cost_network.node[7].content_store 	decision_no[7] 	738064
scalar geant_cost_network.node[7].content_store 	decision_ratio[7] 	0.0085608318769755
scalar geant_cost_network.node[7].content_store 	cache_value[7] 	6.2860652550253
scalar geant_cost_network.node[7].content_store 	average_price_of_cache[7] 	8.8260869565217
scalar geant_cost_network.node[7].content_store 	correction_factor[7] 	0.0027225701061802
scalar geant_cost_network.node[7].content_store 	kappa[7] 	1
scalar geant_cost_network.node[8].core_layer 	interests[8] 	576285
scalar geant_cost_network.node[8].core_layer 	data[8] 	530915
scalar geant_cost_network.node[8].content_store 	p_hit[8] 	0.075610158168267
scalar geant_cost_network.node[8].content_store 	hits[8] 	43573
scalar geant_cost_network.node[8].content_store 	misses[8] 	532712
scalar geant_cost_network.node[8].content_store 	decision_yes[8] 	7276
scalar geant_cost_network.node[8].content_store 	decision_no[8] 	523639
scalar geant_cost_network.node[8].content_store 	decision_ratio[8] 	0.013704641986005
scalar geant_cost_network.node[8].content_store 	cache_value[8] 	7.4004682349489
scalar geant_cost_network.node[8].content_store 	average_price_of_cache[8] 	10
scalar geant_cost_network.node[8].content_store 	correction_factor[8] 	0.0027225701061802
scalar geant_cost_network.node[8].content_store 	kappa[8] 	1
scalar geant_cost_network.node[9].core_layer 	interests[9] 	1131442
scalar geant_cost_network.node[9].core_layer 	repo_load[9] 	720882
scalar geant_cost_network.node[9].core_layer 	data[9] 	240621
scalar geant_cost_network.node[9].content_store 	p_hit[9] 	0.14623993099072
scalar geant_cost_network.node[9].content_store 	hits[9] 	165462
scalar geant_cost_network.node[9].content_store 	misses[9] 	965980
scalar geant_cost_network.node[9].content_store 	decision_yes[9] 	20106
scalar geant_cost_network.node[9].content_store 	decision_no[9] 	941397
scalar geant_cost_network.node[9].content_store 	decision_ratio[9] 	0.020911011198093
scalar geant_cost_network.node[9].content_store 	cache_value[9] 	6.98233708773
scalar geant_cost_network.node[9].content_store 	average_price_of_cache[9] 	10
scalar geant_cost_network.node[9].content_store 	correction_factor[9] 	0.0027225701061802
scalar geant_cost_network.node[9].content_store 	kappa[9] 	1
scalar geant_cost_network.node[10].core_layer 	interests[10] 	231402
scalar geant_cost_network.node[10].core_layer 	data[10] 	207340
scalar geant_cost_network.node[10].content_store 	p_hit[10] 	0.095677651878549
scalar geant_cost_network.node[10].content_store 	hits[10] 	22140
scalar geant_cost_network.node[10].content_store 	misses[10] 	209262
scalar geant_cost_network.node[10].content_store 	decision_yes[10] 	1970
scalar geant_cost_network.node[10].content_store 	decision_no[10] 	205370
scalar geant_cost_network.node[10].content_store 	decision_ratio[10] 	0.0095013022089322
scalar geant_cost_network.node[10].content_store 	cache_value[10] 	7.8724801776569
scalar geant_cost_network.node[10].content_store 	average_price_of_cache[10] 	9.6086956521739
scalar geant_cost_network.node[10].content_store 	correction_factor[10] 	0.0027225701061802
scalar geant_cost_network.node[10].content_store 	kappa[10] 	1
scalar geant_cost_network.node[11].core_layer 	interests[11] 	180137
scalar geant_cost_network.node[11].core_layer 	data[11] 	173579
scalar geant_cost_network.node[11].content_store 	p_hit[11] 	0.02673520709238
scalar geant_cost_network.node[11].content_store 	hits[11] 	4816
scalar geant_cost_network.node[11].content_store 	misses[11] 	175321
scalar geant_cost_network.node[11].content_store 	decision_yes[11] 	927
scalar geant_cost_network.node[11].content_store 	decision_no[11] 	172652
scalar geant_cost_network.node[11].content_store 	decision_ratio[11] 	0.005340507780319
scalar geant_cost_network.node[11].content_store 	cache_value[11] 	3.1646142194283
scalar geant_cost_network.node[11].content_store 	average_price_of_cache[11] 	9.4130434782609
scalar geant_cost_network.node[11].content_store 	correction_factor[11] 	0.0027225701061802
scalar geant_cost_network.node[11].content_store 	kappa[11] 	1
scalar geant_cost_network.node[12].core_layer 	interests[12] 	918376
scalar geant_cost_network.node[12].core_layer 	data[12] 	806599
scalar geant_cost_network.node[12].content_store 	p_hit[12] 	0.10676019408173
scalar geant_cost_network.node[12].content_store 	hits[12] 	98046
scalar geant_cost_network.node[12].content_store 	misses[12] 	820330
scalar geant_cost_network.node[12].content_store 	decision_yes[12] 	9736
scalar geant_cost_network.node[12].content_store 	decision_no[12] 	796863
scalar geant_cost_network.node[12].content_store 	decision_ratio[12] 	0.012070434007481
scalar geant_cost_network.node[12].content_store 	cache_value[12] 	6.4536205329674
scalar geant_cost_network.node[12].content_store 	average_price_of_cache[12] 	10
scalar geant_cost_network.node[12].content_store 	correction_factor[12] 	0.0027225701061802
scalar geant_cost_network.node[12].content_store 	kappa[12] 	1
scalar geant_cost_network.node[13].core_layer 	interests[13] 	281205
scalar geant_cost_network.node[13].core_layer 	data[13] 	259468
scalar geant_cost_network.node[13].content_store 	p_hit[13] 	0.043199800857026
scalar geant_cost_network.node[13].content_store 	hits[13] 	12148
scalar geant_cost_network.node[13].content_store 	misses[13] 	269057
scalar geant_cost_network.node[13].content_store 	decision_yes[13] 	2602
scalar geant_cost_network.node[13].content_store 	decision_no[13] 	256866
scalar geant_cost_network.node[13].content_store 	decision_ratio[13] 	0.010028211571369
scalar geant_cost_network.node[13].content_store 	cache_value[13] 	3.1662540851649
scalar geant_cost_network.node[13].content_store 	average_price_of_cache[13] 	10
scalar geant_cost_network.node[13].content_store 	correction_factor[13] 	0.0027225701061802
scalar geant_cost_network.node[13].content_store 	kappa[13] 	1
scalar geant_cost_network.node[14].core_layer 	interests[14] 	773012
scalar geant_cost_network.node[14].core_layer 	data[14] 	737005
scalar geant_cost_network.node[14].content_store 	p_hit[14] 	0.031810631659017
scalar geant_cost_network.node[14].content_store 	hits[14] 	24590
scalar geant_cost_network.node[14].content_store 	misses[14] 	748422
scalar geant_cost_network.node[14].content_store 	decision_yes[14] 	2357
scalar geant_cost_network.node[14].content_store 	decision_no[14] 	734648
scalar geant_cost_network.node[14].content_store 	decision_ratio[14] 	0.0031980787104565
scalar geant_cost_network.node[14].content_store 	cache_value[14] 	1.6474563523839
scalar geant_cost_network.node[14].content_store 	average_price_of_cache[14] 	4.9130434782609
scalar geant_cost_network.node[14].content_store 	correction_factor[14] 	0.0027225701061802
scalar geant_cost_network.node[14].content_store 	kappa[14] 	1
scalar geant_cost_network.node[15].core_layer 	interests[15] 	233253
scalar geant_cost_network.node[15].core_layer 	data[15] 	222029
scalar geant_cost_network.node[15].content_store 	p_hit[15] 	0.039142047476345
scalar geant_cost_network.node[15].content_store 	hits[15] 	9130
scalar geant_cost_network.node[15].content_store 	misses[15] 	224123
scalar geant_cost_network.node[15].content_store 	decision_yes[15] 	1809
scalar geant_cost_network.node[15].content_store 	decision_no[15] 	220220
scalar geant_cost_network.node[15].content_store 	decision_ratio[15] 	0.0081475843245702
scalar geant_cost_network.node[15].content_store 	cache_value[15] 	3.2139194505262
scalar geant_cost_network.node[15].content_store 	average_price_of_cache[15] 	9.6086956521739
scalar geant_cost_network.node[15].content_store 	correction_factor[15] 	0.0027225701061802
scalar geant_cost_network.node[15].content_store 	kappa[15] 	1
scalar geant_cost_network.node[16].core_layer 	interests[16] 	180112
scalar geant_cost_network.node[16].core_layer 	data[16] 	172372
scalar geant_cost_network.node[16].content_store 	p_hit[16] 	0.022219507861775
scalar geant_cost_network.node[16].content_store 	hits[16] 	4002
scalar geant_cost_network.node[16].content_store 	misses[16] 	176110
scalar geant_cost_network.node[16].content_store 	decision_yes[16] 	959
scalar geant_cost_network.node[16].content_store 	decision_no[16] 	171413
scalar geant_cost_network.node[16].content_store 	decision_ratio[16] 	0.0055635486041817
scalar geant_cost_network.node[16].content_store 	cache_value[16] 	1.9913041492641
scalar geant_cost_network.node[16].content_store 	average_price_of_cache[16] 	8.6304347826087
scalar geant_cost_network.node[16].content_store 	correction_factor[16] 	0.0027225701061802
scalar geant_cost_network.node[16].content_store 	kappa[16] 	1
scalar geant_cost_network.node[17].core_layer 	interests[17] 	253583
scalar geant_cost_network.node[17].core_layer 	data[17] 	246652
scalar geant_cost_network.node[17].content_store 	p_hit[17] 	0.012548159774117
scalar geant_cost_network.node[17].content_store 	hits[17] 	3182
scalar geant_cost_network.node[17].content_store 	misses[17] 	250401
scalar geant_cost_network.node[17].content_store 	decision_yes[17] 	946
scalar geant_cost_network.node[17].content_store 	decision_no[17] 	245706
scalar geant_cost_network.node[17].content_store 	decision_ratio[17] 	0.0038353631837569
scalar geant_cost_network.node[17].content_store 	cache_value[17] 	2.2753849802567
scalar geant_cost_network.node[17].content_store 	average_price_of_cache[17] 	9.6086956521739
scalar geant_cost_network.node[17].content_store 	correction_factor[17] 	0.0027225701061802
scalar geant_cost_network.node[17].content_store 	kappa[17] 	1
scalar geant_cost_network.node[18].core_layer 	interests[18] 	1832654
scalar geant_cost_network.node[18].core_layer 	repo_load[18] 	1524267
scalar geant_cost_network.node[18].core_layer 	data[18] 	294617
scalar geant_cost_network.node[18].content_store 	p_hit[18] 	0.0064649410090503
scalar geant_cost_network.node[18].content_store 	hits[18] 	11848
scalar geant_cost_network.node[18].content_store 	misses[18] 	1820806
scalar geant_cost_network.node[18].content_store 	decision_yes[18] 	2691
scalar geant_cost_network.node[18].content_store 	decision_no[18] 	1816193
scalar geant_cost_network.node[18].content_store 	decision_ratio[18] 	0.0014794786253549
scalar geant_cost_network.node[18].content_store 	cache_value[18] 	1.8785876666088
scalar geant_cost_network.node[18].content_store 	average_price_of_cache[18] 	8.4347826086957
scalar geant_cost_network.node[18].content_store 	correction_factor[18] 	0.0027225701061802
scalar geant_cost_network.node[18].content_store 	kappa[18] 	1
scalar geant_cost_network.node[19].core_layer 	interests[19] 	180567
scalar geant_cost_network.node[19].core_layer 	data[19] 	178303
scalar geant_cost_network.node[19].content_store 	p_hit[19] 	0.0086449905021405
scalar geant_cost_network.node[19].content_store 	hits[19] 	1561
scalar geant_cost_network.node[19].content_store 	misses[19] 	179006
scalar geant_cost_network.node[19].content_store 	decision_yes[19] 	851
scalar geant_cost_network.node[19].content_store 	decision_no[19] 	177452
scalar geant_cost_network.node[19].content_store 	decision_ratio[19] 	0.00477277443453
scalar geant_cost_network.node[19].content_store 	cache_value[19] 	1.3136556326309
scalar geant_cost_network.node[19].content_store 	average_price_of_cache[19] 	9.2173913043478
scalar geant_cost_network.node[19].content_store 	correction_factor[19] 	0.0027225701061802
scalar geant_cost_network.node[19].content_store 	kappa[19] 	1
scalar geant_cost_network.node[20].core_layer 	interests[20] 	180463
scalar geant_cost_network.node[20].core_layer 	data[20] 	178269
scalar geant_cost_network.node[20].content_store 	p_hit[20] 	0.008694302987316
scalar geant_cost_network.node[20].content_store 	hits[20] 	1569
scalar geant_cost_network.node[20].content_store 	misses[20] 	178894
scalar geant_cost_network.node[20].content_store 	decision_yes[20] 	903
scalar geant_cost_network.node[20].content_store 	decision_no[20] 	177366
scalar geant_cost_network.node[20].content_store 	decision_ratio[20] 	0.0050653787254094
scalar geant_cost_network.node[20].content_store 	cache_value[20] 	1.2150329302779
scalar geant_cost_network.node[20].content_store 	average_price_of_cache[20] 	9.2173913043478
scalar geant_cost_network.node[20].content_store 	correction_factor[20] 	0.0027225701061802
scalar geant_cost_network.node[20].content_store 	kappa[20] 	1
scalar geant_cost_network.node[21].core_layer 	interests[21] 	250115
scalar geant_cost_network.node[21].core_layer 	data[21] 	242637
scalar geant_cost_network.node[21].content_store 	p_hit[21] 	0.014373388241409
scalar geant_cost_network.node[21].content_store 	hits[21] 	3595
scalar geant_cost_network.node[21].content_store 	misses[21] 	246520
scalar geant_cost_network.node[21].content_store 	decision_yes[21] 	879
scalar geant_cost_network.node[21].content_store 	decision_no[21] 	241758
scalar geant_cost_network.node[21].content_store 	decision_ratio[21] 	0.0036226956317462
scalar geant_cost_network.node[21].content_store 	cache_value[21] 	1.9629093215834
scalar geant_cost_network.node[21].content_store 	average_price_of_cache[21] 	9.6086956521739
scalar geant_cost_network.node[21].content_store 	correction_factor[21] 	0.0027225701061802
scalar geant_cost_network.node[21].content_store 	kappa[21] 	1
scalar geant_cost_network.client[0] 	hdistance[0] 	4.0061409160296
scalar geant_cost_network.client[0] 	downloads[0] 	172287
scalar geant_cost_network.client[0] 	avg_time[0] 	0.054288775305
scalar geant_cost_network.client[0] 	interests_sent[0] 	180630
scalar geant_cost_network.client[1] 	hdistance[1] 	3.0866630042646
scalar geant_cost_network.client[1] 	downloads[1] 	176569
scalar geant_cost_network.client[1] 	avg_time[1] 	0.01243806489
scalar geant_cost_network.client[1] 	interests_sent[1] 	179064
scalar geant_cost_network.client[2] 	hdistance[2] 	3.5192869782509
scalar geant_cost_network.client[2] 	downloads[2] 	176881
scalar geant_cost_network.client[2] 	avg_time[2] 	0.017169630705
scalar geant_cost_network.client[2] 	interests_sent[2] 	179931
scalar geant_cost_network.client[3] 	hdistance[3] 	2.5735169349617
scalar geant_cost_network.client[3] 	downloads[3] 	179156
scalar geant_cost_network.client[3] 	avg_time[3] 	0.006503755052
scalar geant_cost_network.client[3] 	interests_sent[3] 	180182
scalar geant_cost_network.client[4] 	hdistance[4] 	2.4706859799593
scalar geant_cost_network.client[4] 	downloads[4] 	178737
scalar geant_cost_network.client[4] 	avg_time[4] 	0.004942497707
scalar geant_cost_network.client[4] 	interests_sent[4] 	179679
scalar geant_cost_network.client[5] 	hdistance[5] 	2.6483559124728
scalar geant_cost_network.client[5] 	downloads[5] 	177819
scalar geant_cost_network.client[5] 	avg_time[5] 	0.009151655418
scalar geant_cost_network.client[5] 	interests_sent[5] 	179811
scalar geant_cost_network.client[6] 	hdistance[6] 	2.868773532498
scalar geant_cost_network.client[6] 	downloads[6] 	178211
scalar geant_cost_network.client[6] 	avg_time[6] 	0.006382499989
scalar geant_cost_network.client[6] 	interests_sent[6] 	180022
scalar geant_cost_network.client[7] 	hdistance[7] 	2.3842814279249
scalar geant_cost_network.client[7] 	downloads[7] 	178973
scalar geant_cost_network.client[7] 	avg_time[7] 	0.004722118458
scalar geant_cost_network.client[7] 	interests_sent[7] 	180106
scalar geant_cost_network.client[8] 	hdistance[8] 	2.8647842301545
scalar geant_cost_network.client[8] 	downloads[8] 	178315
scalar geant_cost_network.client[8] 	avg_time[8] 	0.005578728401
scalar geant_cost_network.client[8] 	interests_sent[8] 	179852
scalar geant_cost_network.client[9] 	hdistance[9] 	3.3094597623851
scalar geant_cost_network.client[9] 	downloads[9] 	178440
scalar geant_cost_network.client[9] 	avg_time[9] 	0.006002125507
scalar geant_cost_network.client[9] 	interests_sent[9] 	179972
scalar geant_cost_network.client[10] 	hdistance[10] 	4.1845334203463
scalar geant_cost_network.client[10] 	downloads[10] 	177751
scalar geant_cost_network.client[10] 	avg_time[10] 	0.007819430864
scalar geant_cost_network.client[10] 	interests_sent[10] 	179615
scalar geant_cost_network.client[11] 	hdistance[11] 	3.9742089184114
scalar geant_cost_network.client[11] 	downloads[11] 	178395
scalar geant_cost_network.client[11] 	avg_time[11] 	0.009113855092
scalar geant_cost_network.client[11] 	interests_sent[11] 	180137
scalar geant_cost_network.client[12] 	hdistance[12] 	3.0501050155423
scalar geant_cost_network.client[12] 	downloads[12] 	178545
scalar geant_cost_network.client[12] 	avg_time[12] 	0.007540165635
scalar geant_cost_network.client[12] 	interests_sent[12] 	179940
scalar geant_cost_network.client[13] 	hdistance[13] 	2.8650678294574
scalar geant_cost_network.client[13] 	downloads[13] 	173376
scalar geant_cost_network.client[13] 	avg_time[13] 	0.042428566016
scalar geant_cost_network.client[13] 	interests_sent[13] 	180151
scalar geant_cost_network.client[14] 	hdistance[14] 	2.4594430448084
scalar geant_cost_network.client[14] 	downloads[14] 	177824
scalar geant_cost_network.client[14] 	avg_time[14] 	0.027860638434
scalar geant_cost_network.client[14] 	interests_sent[14] 	179763
scalar geant_cost_network.client[15] 	hdistance[15] 	2.8616196491228
scalar geant_cost_network.client[15] 	downloads[15] 	178125
scalar geant_cost_network.client[15] 	avg_time[15] 	0.010839663829
scalar geant_cost_network.client[15] 	interests_sent[15] 	179970
scalar geant_cost_network.client[16] 	hdistance[16] 	3.4076904759205
scalar geant_cost_network.client[16] 	downloads[16] 	176374
scalar geant_cost_network.client[16] 	avg_time[16] 	0.037349215041
scalar geant_cost_network.client[16] 	interests_sent[16] 	180112
scalar geant_cost_network.client[17] 	hdistance[17] 	2.9677527768909
scalar geant_cost_network.client[17] 	downloads[17] 	178527
scalar geant_cost_network.client[17] 	avg_time[17] 	0.012732554353
scalar geant_cost_network.client[17] 	interests_sent[17] 	180093
scalar geant_cost_network.client[18] 	hdistance[18] 	2.485464354055
scalar geant_cost_network.client[18] 	downloads[18] 	179249
scalar geant_cost_network.client[18] 	avg_time[18] 	0.006975432382
scalar geant_cost_network.client[18] 	interests_sent[18] 	179504
scalar geant_cost_network.client[19] 	hdistance[19] 	3.4448861361918
scalar geant_cost_network.client[19] 	downloads[19] 	179864
scalar geant_cost_network.client[19] 	avg_time[19] 	0.008811056959
scalar geant_cost_network.client[19] 	interests_sent[19] 	180567
scalar geant_cost_network.client[20] 	hdistance[20] 	3.4470579076725
scalar geant_cost_network.client[20] 	downloads[20] 	179838
scalar geant_cost_network.client[20] 	avg_time[20] 	0.008629484571
scalar geant_cost_network.client[20] 	interests_sent[20] 	180463
scalar geant_cost_network.client[21] 	hdistance[21] 	3.3367438691337
scalar geant_cost_network.client[21] 	downloads[21] 	179053
scalar geant_cost_network.client[21] 	avg_time[21] 	0.010342668932
scalar geant_cost_network.client[21] 	interests_sent[21] 	180731
