version 2
run General-18-20150312-12:24:05-30703
attr D costaware0.01
attr F spr
attr R lru
attr a 1
attr configname General
attr csize 1e3
attr ctlg 1e5
attr datetime 20150312-12:24:05
attr experiment General
attr inifile omnetpp.ini
attr iterationvars "$rep=35, $net=geant_cost, $lambda=100, $a=1, $ctlg=1e5, $F=spr, $ttl=10, $D=costaware0.01, $R=lru, $csize=1e3, $window=60, $variance=0.05, $mytime=1800, $kappa=1, $priceratiovalue=10, $pricebits=0"
attr iterationvars2 "$rep=35, $net=geant_cost, $lambda=100, $a=1, $ctlg=1e5, $F=spr, $ttl=10, $D=costaware0.01, $R=lru, $csize=1e3, $window=60, $variance=0.05, $mytime=1800, $kappa=1, $priceratiovalue=10, $pricebits=0, $repetition=0"
attr kappa 1
attr lambda 100
attr measurement "$rep=35, $net=geant_cost, $lambda=100, $a=1, $ctlg=1e5, $F=spr, $ttl=10, $D=costaware0.01, $R=lru, $csize=1e3, $window=60, $variance=0.05, $mytime=1800, $kappa=1, $priceratiovalue=10, $pricebits=0"
attr mytime 1800
attr net geant_cost
attr network networks.${net=geant_cost}_network
attr pricebits 0
attr priceratiovalue 10
attr processid 30703
attr rep 35
attr repetition 0
attr replication #0
attr resultdir results
attr runnumber 18
attr seedset 35
attr ttl 10
attr variance 0.05
attr window 60

scalar . 	a 	1
scalar . 	csize 	1e3
scalar . 	ctlg 	1e5
scalar . 	kappa 	1
scalar . 	lambda 	100
scalar . 	mytime 	1800
scalar . 	pricebits 	0
scalar . 	priceratiovalue 	10
scalar . 	rep 	35
scalar . 	ttl 	10
scalar . 	variance 	0.05
scalar . 	window 	60
scalar geant_cost_network.content_distribution 	repo-0 	18
scalar geant_cost_network.content_distribution 	repo-1 	6
scalar geant_cost_network.content_distribution 	repo-2 	9
scalar geant_cost_network.content_distribution 	client-0 	14
scalar geant_cost_network.content_distribution 	client-1 	7
scalar geant_cost_network.content_distribution 	client-2 	20
scalar geant_cost_network.content_distribution 	client-3 	10
scalar geant_cost_network.content_distribution 	client-4 	19
scalar geant_cost_network.content_distribution 	client-5 	21
scalar geant_cost_network.content_distribution 	client-6 	2
scalar geant_cost_network.content_distribution 	client-7 	18
scalar geant_cost_network.content_distribution 	client-8 	13
scalar geant_cost_network.content_distribution 	client-9 	16
scalar geant_cost_network.content_distribution 	client-10 	12
scalar geant_cost_network.content_distribution 	client-11 	3
scalar geant_cost_network.content_distribution 	client-12 	1
scalar geant_cost_network.content_distribution 	client-13 	5
scalar geant_cost_network.content_distribution 	client-14 	6
scalar geant_cost_network.content_distribution 	client-15 	4
scalar geant_cost_network.content_distribution 	client-16 	11
scalar geant_cost_network.content_distribution 	client-17 	17
scalar geant_cost_network.content_distribution 	client-18 	8
scalar geant_cost_network.content_distribution 	client-19 	0
scalar geant_cost_network.content_distribution 	client-20 	15
scalar geant_cost_network.content_distribution 	client-21 	9
scalar geant_cost_network.content_distribution 	repo-0_card 	33353
scalar geant_cost_network.content_distribution 	repo-0_price 	0
scalar geant_cost_network.content_distribution 	repo-1_card 	33189
scalar geant_cost_network.content_distribution 	repo-1_price 	1
scalar geant_cost_network.content_distribution 	repo-2_card 	33458
scalar geant_cost_network.content_distribution 	repo-2_price 	10
scalar geant_cost_network.statistics 	repo_popularity[0] 	0.34468553408997
scalar geant_cost_network.statistics 	repo_popularity[1] 	0.37402083936087
scalar geant_cost_network.statistics 	repo_popularity[2] 	0.28129362654917
scalar geant_cost_network.statistics 	stabilization_time 	172.4
scalar geant_cost_network.statistics 	p_hit 	0.082937554585017
scalar geant_cost_network.statistics 	interests 	582702.36363636
scalar geant_cost_network.statistics 	data 	402655.18181818
scalar geant_cost_network.statistics 	hdistance 	3.0171976391609
scalar geant_cost_network.statistics 	avg_time 	0.014506509121
scalar geant_cost_network.statistics 	downloads 	3914731
scalar geant_cost_network.statistics 	total_cost 	7851685
scalar geant_cost_network.statistics 	total_replicas 	100000
scalar geant_cost_network.statistics 	inner_hit 	0.30289846224428
scalar geant_cost_network.statistics 	interests_sent 	3961027
scalar geant_cost_network.node[0].core_layer 	interests[0] 	180117
scalar geant_cost_network.node[0].core_layer 	data[0] 	169996
scalar geant_cost_network.node[0].core_layer 	repo_int[0] 	2728965
scalar geant_cost_network.node[0].content_store 	p_hit[0] 	0.0093272706074385
scalar geant_cost_network.node[0].content_store 	hits[0] 	1680
scalar geant_cost_network.node[0].content_store 	misses[0] 	178437
scalar geant_cost_network.node[0].content_store 	decision_yes[0] 	896
scalar geant_cost_network.node[0].content_store 	decision_no[0] 	169100
scalar geant_cost_network.node[0].content_store 	decision_ratio[0] 	0.005270712252053
scalar geant_cost_network.node[0].content_store 	cache_value[0] 	0.99830381003324
scalar geant_cost_network.node[0].content_store 	average_price_of_cache[0] 	9.2173913043478
scalar geant_cost_network.node[0].content_store 	correction_factor[0] 	0.0027225701061802
scalar geant_cost_network.node[0].content_store 	kappa[0] 	1
scalar geant_cost_network.node[1].core_layer 	interests[1] 	355507
scalar geant_cost_network.node[1].core_layer 	data[1] 	339089
scalar geant_cost_network.node[1].content_store 	p_hit[1] 	0.027895371961734
scalar geant_cost_network.node[1].content_store 	hits[1] 	9917
scalar geant_cost_network.node[1].content_store 	misses[1] 	345590
scalar geant_cost_network.node[1].content_store 	decision_yes[1] 	1908
scalar geant_cost_network.node[1].content_store 	decision_no[1] 	337181
scalar geant_cost_network.node[1].content_store 	decision_ratio[1] 	0.0056268413307421
scalar geant_cost_network.node[1].content_store 	cache_value[1] 	1.7853551952066
scalar geant_cost_network.node[1].content_store 	average_price_of_cache[1] 	8.2391304347826
scalar geant_cost_network.node[1].content_store 	correction_factor[1] 	0.0027225701061802
scalar geant_cost_network.node[1].content_store 	kappa[1] 	1
scalar geant_cost_network.node[2].core_layer 	interests[2] 	180024
scalar geant_cost_network.node[2].core_layer 	data[2] 	175286
scalar geant_cost_network.node[2].content_store 	p_hit[2] 	0.011670666133404
scalar geant_cost_network.node[2].content_store 	hits[2] 	2101
scalar geant_cost_network.node[2].content_store 	misses[2] 	177923
scalar geant_cost_network.node[2].content_store 	decision_yes[2] 	985
scalar geant_cost_network.node[2].content_store 	decision_no[2] 	174301
scalar geant_cost_network.node[2].content_store 	decision_ratio[2] 	0.0056193877434593
scalar geant_cost_network.node[2].content_store 	cache_value[2] 	1.4407418215418
scalar geant_cost_network.node[2].content_store 	average_price_of_cache[2] 	8.8260869565217
scalar geant_cost_network.node[2].content_store 	correction_factor[2] 	0.0027225701061802
scalar geant_cost_network.node[2].content_store 	kappa[2] 	1
scalar geant_cost_network.node[3].core_layer 	interests[3] 	1057318
scalar geant_cost_network.node[3].core_layer 	data[3] 	934103
scalar geant_cost_network.node[3].content_store 	p_hit[3] 	0.10336152415829
scalar geant_cost_network.node[3].content_store 	hits[3] 	109286
scalar geant_cost_network.node[3].content_store 	misses[3] 	948032
scalar geant_cost_network.node[3].content_store 	decision_yes[3] 	4935
scalar geant_cost_network.node[3].content_store 	decision_no[3] 	929168
scalar geant_cost_network.node[3].content_store 	decision_ratio[3] 	0.0052831432936197
scalar geant_cost_network.node[3].content_store 	cache_value[3] 	3.1842973553196
scalar geant_cost_network.node[3].content_store 	average_price_of_cache[3] 	8.8260869565217
scalar geant_cost_network.node[3].content_store 	correction_factor[3] 	0.0027225701061802
scalar geant_cost_network.node[3].content_store 	kappa[3] 	1
scalar geant_cost_network.node[4].core_layer 	interests[4] 	1098268
scalar geant_cost_network.node[4].core_layer 	data[4] 	1055276
scalar geant_cost_network.node[4].content_store 	p_hit[4] 	0.021034938648854
scalar geant_cost_network.node[4].content_store 	hits[4] 	23102
scalar geant_cost_network.node[4].content_store 	misses[4] 	1075166
scalar geant_cost_network.node[4].content_store 	decision_yes[4] 	4214
scalar geant_cost_network.node[4].content_store 	decision_no[4] 	1051062
scalar geant_cost_network.node[4].content_store 	decision_ratio[4] 	0.0039932681118494
scalar geant_cost_network.node[4].content_store 	cache_value[4] 	3.3612047619884
scalar geant_cost_network.node[4].content_store 	average_price_of_cache[4] 	9.804347826087
scalar geant_cost_network.node[4].content_store 	correction_factor[4] 	0.0027225701061802
scalar geant_cost_network.node[4].content_store 	kappa[4] 	1
scalar geant_cost_network.node[5].core_layer 	interests[5] 	964849
scalar geant_cost_network.node[5].core_layer 	data[5] 	782482
scalar geant_cost_network.node[5].content_store 	p_hit[5] 	0.17455581132384
scalar geant_cost_network.node[5].content_store 	hits[5] 	168420
scalar geant_cost_network.node[5].content_store 	misses[5] 	796429
scalar geant_cost_network.node[5].content_store 	decision_yes[5] 	2250
scalar geant_cost_network.node[5].content_store 	decision_no[5] 	780232
scalar geant_cost_network.node[5].content_store 	decision_ratio[5] 	0.0028754655059158
scalar geant_cost_network.node[5].content_store 	cache_value[5] 	1.4292406864869
scalar geant_cost_network.node[5].content_store 	average_price_of_cache[5] 	1.7826086956522
scalar geant_cost_network.node[5].content_store 	correction_factor[5] 	0.0027225701061802
scalar geant_cost_network.node[5].content_store 	kappa[5] 	1
scalar geant_cost_network.node[6].core_layer 	interests[6] 	1094198
scalar geant_cost_network.node[6].core_layer 	repo_load[6] 	684815
scalar geant_cost_network.node[6].core_layer 	data[6] 	111740
scalar geant_cost_network.node[6].content_store 	p_hit[6] 	0.27162999749588
scalar geant_cost_network.node[6].content_store 	hits[6] 	297217
scalar geant_cost_network.node[6].content_store 	misses[6] 	796981
scalar geant_cost_network.node[6].content_store 	decision_yes[6] 	2740
scalar geant_cost_network.node[6].content_store 	decision_no[6] 	793815
scalar geant_cost_network.node[6].content_store 	decision_ratio[6] 	0.003439812693411
scalar geant_cost_network.node[6].content_store 	cache_value[6] 	2.1908447401608
scalar geant_cost_network.node[6].content_store 	average_price_of_cache[6] 	1
scalar geant_cost_network.node[6].content_store 	correction_factor[6] 	0.0027225701061802
scalar geant_cost_network.node[6].content_store 	kappa[6] 	1
scalar geant_cost_network.node[7].core_layer 	interests[7] 	831277
scalar geant_cost_network.node[7].core_layer 	data[7] 	719260
scalar geant_cost_network.node[7].content_store 	p_hit[7] 	0.13063635827769
scalar geant_cost_network.node[7].content_store 	hits[7] 	108595
scalar geant_cost_network.node[7].content_store 	misses[7] 	722682
scalar geant_cost_network.node[7].content_store 	decision_yes[7] 	6390
scalar geant_cost_network.node[7].content_store 	decision_no[7] 	712870
scalar geant_cost_network.node[7].content_store 	decision_ratio[7] 	0.0088841309123266
scalar geant_cost_network.node[7].content_store 	cache_value[7] 	3.3111030921977
scalar geant_cost_network.node[7].content_store 	average_price_of_cache[7] 	8.2391304347826
scalar geant_cost_network.node[7].content_store 	correction_factor[7] 	0.0027225701061802
scalar geant_cost_network.node[7].content_store 	kappa[7] 	1
scalar geant_cost_network.node[8].core_layer 	interests[8] 	602408
scalar geant_cost_network.node[8].core_layer 	data[8] 	568848
scalar geant_cost_network.node[8].content_store 	p_hit[8] 	0.05188676113199
scalar geant_cost_network.node[8].content_store 	hits[8] 	31257
scalar geant_cost_network.node[8].content_store 	misses[8] 	571151
scalar geant_cost_network.node[8].content_store 	decision_yes[8] 	7026
scalar geant_cost_network.node[8].content_store 	decision_no[8] 	561822
scalar geant_cost_network.node[8].content_store 	decision_ratio[8] 	0.012351278373133
scalar geant_cost_network.node[8].content_store 	cache_value[8] 	4.3532752223239
scalar geant_cost_network.node[8].content_store 	average_price_of_cache[8] 	10
scalar geant_cost_network.node[8].content_store 	correction_factor[8] 	0.0027225701061802
scalar geant_cost_network.node[8].content_store 	kappa[8] 	1
scalar geant_cost_network.node[9].core_layer 	interests[9] 	1111744
scalar geant_cost_network.node[9].core_layer 	repo_load[9] 	716687
scalar geant_cost_network.node[9].core_layer 	data[9] 	254141
scalar geant_cost_network.node[9].content_store 	p_hit[9] 	0.12429480168096
scalar geant_cost_network.node[9].content_store 	hits[9] 	138184
scalar geant_cost_network.node[9].content_store 	misses[9] 	973560
scalar geant_cost_network.node[9].content_store 	decision_yes[9] 	19707
scalar geant_cost_network.node[9].content_store 	decision_no[9] 	951121
scalar geant_cost_network.node[9].content_store 	decision_ratio[9] 	0.02029916730873
scalar geant_cost_network.node[9].content_store 	cache_value[9] 	6.259817210276
scalar geant_cost_network.node[9].content_store 	average_price_of_cache[9] 	10
scalar geant_cost_network.node[9].content_store 	correction_factor[9] 	0.0027225701061802
scalar geant_cost_network.node[9].content_store 	kappa[9] 	1
scalar geant_cost_network.node[10].core_layer 	interests[10] 	226437
scalar geant_cost_network.node[10].core_layer 	data[10] 	204974
scalar geant_cost_network.node[10].content_store 	p_hit[10] 	0.08934935544986
scalar geant_cost_network.node[10].content_store 	hits[10] 	20232
scalar geant_cost_network.node[10].content_store 	misses[10] 	206205
scalar geant_cost_network.node[10].content_store 	decision_yes[10] 	1931
scalar geant_cost_network.node[10].content_store 	decision_no[10] 	203043
scalar geant_cost_network.node[10].content_store 	decision_ratio[10] 	0.0094207070164997
scalar geant_cost_network.node[10].content_store 	cache_value[10] 	8.0000050860366
scalar geant_cost_network.node[10].content_store 	average_price_of_cache[10] 	9.6086956521739
scalar geant_cost_network.node[10].content_store 	correction_factor[10] 	0.0027225701061802
scalar geant_cost_network.node[10].content_store 	kappa[10] 	1
scalar geant_cost_network.node[11].core_layer 	interests[11] 	179667
scalar geant_cost_network.node[11].core_layer 	data[11] 	173595
scalar geant_cost_network.node[11].content_store 	p_hit[11] 	0.026137242788047
scalar geant_cost_network.node[11].content_store 	hits[11] 	4696
scalar geant_cost_network.node[11].content_store 	misses[11] 	174971
scalar geant_cost_network.node[11].content_store 	decision_yes[11] 	930
scalar geant_cost_network.node[11].content_store 	decision_no[11] 	172665
scalar geant_cost_network.node[11].content_store 	decision_ratio[11] 	0.0053572971571762
scalar geant_cost_network.node[11].content_store 	cache_value[11] 	3.2607426701325
scalar geant_cost_network.node[11].content_store 	average_price_of_cache[11] 	8.6304347826087
scalar geant_cost_network.node[11].content_store 	correction_factor[11] 	0.0027225701061802
scalar geant_cost_network.node[11].content_store 	kappa[11] 	1
scalar geant_cost_network.node[12].core_layer 	interests[12] 	884251
scalar geant_cost_network.node[12].core_layer 	data[12] 	789304
scalar geant_cost_network.node[12].content_store 	p_hit[12] 	0.10112060941972
scalar geant_cost_network.node[12].content_store 	hits[12] 	89416
scalar geant_cost_network.node[12].content_store 	misses[12] 	794835
scalar geant_cost_network.node[12].content_store 	decision_yes[12] 	9803
scalar geant_cost_network.node[12].content_store 	decision_no[12] 	779501
scalar geant_cost_network.node[12].content_store 	decision_ratio[12] 	0.012419802762941
scalar geant_cost_network.node[12].content_store 	cache_value[12] 	6.3564741804449
scalar geant_cost_network.node[12].content_store 	average_price_of_cache[12] 	10
scalar geant_cost_network.node[12].content_store 	correction_factor[12] 	0.0027225701061802
scalar geant_cost_network.node[12].content_store 	kappa[12] 	1
scalar geant_cost_network.node[13].core_layer 	interests[13] 	273451
scalar geant_cost_network.node[13].core_layer 	data[13] 	255214
scalar geant_cost_network.node[13].content_store 	p_hit[13] 	0.035344540703819
scalar geant_cost_network.node[13].content_store 	hits[13] 	9665
scalar geant_cost_network.node[13].content_store 	misses[13] 	263786
scalar geant_cost_network.node[13].content_store 	decision_yes[13] 	2630
scalar geant_cost_network.node[13].content_store 	decision_no[13] 	252584
scalar geant_cost_network.node[13].content_store 	decision_ratio[13] 	0.010305077307671
scalar geant_cost_network.node[13].content_store 	cache_value[13] 	2.4737389268404
scalar geant_cost_network.node[13].content_store 	average_price_of_cache[13] 	10
scalar geant_cost_network.node[13].content_store 	correction_factor[13] 	0.0027225701061802
scalar geant_cost_network.node[13].content_store 	kappa[13] 	1
scalar geant_cost_network.node[14].core_layer 	interests[14] 	854800
scalar geant_cost_network.node[14].core_layer 	data[14] 	784760
scalar geant_cost_network.node[14].content_store 	p_hit[14] 	0.021751286850725
scalar geant_cost_network.node[14].content_store 	hits[14] 	18593
scalar geant_cost_network.node[14].content_store 	misses[14] 	836207
scalar geant_cost_network.node[14].content_store 	decision_yes[14] 	2363
scalar geant_cost_network.node[14].content_store 	decision_no[14] 	782397
scalar geant_cost_network.node[14].content_store 	decision_ratio[14] 	0.0030111116774555
scalar geant_cost_network.node[14].content_store 	cache_value[14] 	1.0042105466926
scalar geant_cost_network.node[14].content_store 	average_price_of_cache[14] 	5.8913043478261
scalar geant_cost_network.node[14].content_store 	correction_factor[14] 	0.0027225701061802
scalar geant_cost_network.node[14].content_store 	kappa[14] 	1
scalar geant_cost_network.node[15].core_layer 	interests[15] 	229197
scalar geant_cost_network.node[15].core_layer 	data[15] 	216455
scalar geant_cost_network.node[15].content_store 	p_hit[15] 	0.044699537952067
scalar geant_cost_network.node[15].content_store 	hits[15] 	10245
scalar geant_cost_network.node[15].content_store 	misses[15] 	218952
scalar geant_cost_network.node[15].content_store 	decision_yes[15] 	1850
scalar geant_cost_network.node[15].content_store 	decision_no[15] 	214605
scalar geant_cost_network.node[15].content_store 	decision_ratio[15] 	0.0085468111154743
scalar geant_cost_network.node[15].content_store 	cache_value[15] 	3.2722564115764
scalar geant_cost_network.node[15].content_store 	average_price_of_cache[15] 	9.804347826087
scalar geant_cost_network.node[15].content_store 	correction_factor[15] 	0.0027225701061802
scalar geant_cost_network.node[15].content_store 	kappa[15] 	1
scalar geant_cost_network.node[16].core_layer 	interests[16] 	180317
scalar geant_cost_network.node[16].core_layer 	data[16] 	173338
scalar geant_cost_network.node[16].content_store 	p_hit[16] 	0.016609637471786
scalar geant_cost_network.node[16].content_store 	hits[16] 	2995
scalar geant_cost_network.node[16].content_store 	misses[16] 	177322
scalar geant_cost_network.node[16].content_store 	decision_yes[16] 	886
scalar geant_cost_network.node[16].content_store 	decision_no[16] 	172452
scalar geant_cost_network.node[16].content_store 	decision_ratio[16] 	0.0051114008469003
scalar geant_cost_network.node[16].content_store 	cache_value[16] 	1.4123026355821
scalar geant_cost_network.node[16].content_store 	average_price_of_cache[16] 	9.0217391304348
scalar geant_cost_network.node[16].content_store 	correction_factor[16] 	0.0027225701061802
scalar geant_cost_network.node[16].content_store 	kappa[16] 	1
scalar geant_cost_network.node[17].core_layer 	interests[17] 	242029
scalar geant_cost_network.node[17].core_layer 	data[17] 	236866
scalar geant_cost_network.node[17].content_store 	p_hit[17] 	0.0093666461457098
scalar geant_cost_network.node[17].content_store 	hits[17] 	2267
scalar geant_cost_network.node[17].content_store 	misses[17] 	239762
scalar geant_cost_network.node[17].content_store 	decision_yes[17] 	921
scalar geant_cost_network.node[17].content_store 	decision_no[17] 	235945
scalar geant_cost_network.node[17].content_store 	decision_ratio[17] 	0.0038882743829845
scalar geant_cost_network.node[17].content_store 	cache_value[17] 	1.3957469856878
scalar geant_cost_network.node[17].content_store 	average_price_of_cache[17] 	8.8260869565217
scalar geant_cost_network.node[17].content_store 	correction_factor[17] 	0.0027225701061802
scalar geant_cost_network.node[17].content_store 	kappa[17] 	1
scalar geant_cost_network.node[18].core_layer 	interests[18] 	1673050
scalar geant_cost_network.node[18].core_layer 	repo_load[18] 	1327463
scalar geant_cost_network.node[18].core_layer 	data[18] 	325955
scalar geant_cost_network.node[18].content_store 	p_hit[18] 	0.0054009144974747
scalar geant_cost_network.node[18].content_store 	hits[18] 	9036
scalar geant_cost_network.node[18].content_store 	misses[18] 	1664014
scalar geant_cost_network.node[18].content_store 	decision_yes[18] 	2683
scalar geant_cost_network.node[18].content_store 	decision_no[18] 	1650735
scalar geant_cost_network.node[18].content_store 	decision_ratio[18] 	0.001622699160164
scalar geant_cost_network.node[18].content_store 	cache_value[18] 	2.1045489762838
scalar geant_cost_network.node[18].content_store 	average_price_of_cache[18] 	9.6086956521739
scalar geant_cost_network.node[18].content_store 	correction_factor[18] 	0.0027225701061802
scalar geant_cost_network.node[18].content_store 	kappa[18] 	1
scalar geant_cost_network.node[19].core_layer 	interests[19] 	179999
scalar geant_cost_network.node[19].core_layer 	data[19] 	175780
scalar geant_cost_network.node[19].content_store 	p_hit[19] 	0.012400068889272
scalar geant_cost_network.node[19].content_store 	hits[19] 	2232
scalar geant_cost_network.node[19].content_store 	misses[19] 	177767
scalar geant_cost_network.node[19].content_store 	decision_yes[19] 	887
scalar geant_cost_network.node[19].content_store 	decision_no[19] 	174893
scalar geant_cost_network.node[19].content_store 	decision_ratio[19] 	0.0050460803276823
scalar geant_cost_network.node[19].content_store 	cache_value[19] 	1.3318953681751
scalar geant_cost_network.node[19].content_store 	average_price_of_cache[19] 	9.0217391304348
scalar geant_cost_network.node[19].content_store 	correction_factor[19] 	0.0027225701061802
scalar geant_cost_network.node[19].content_store 	kappa[19] 	1
scalar geant_cost_network.node[20].core_layer 	interests[20] 	180137
scalar geant_cost_network.node[20].core_layer 	data[20] 	176399
scalar geant_cost_network.node[20].content_store 	p_hit[20] 	0.010131177936793
scalar geant_cost_network.node[20].content_store 	hits[20] 	1825
scalar geant_cost_network.node[20].content_store 	misses[20] 	178312
scalar geant_cost_network.node[20].content_store 	decision_yes[20] 	902
scalar geant_cost_network.node[20].content_store 	decision_no[20] 	175497
scalar geant_cost_network.node[20].content_store 	decision_ratio[20] 	0.0051134076723791
scalar geant_cost_network.node[20].content_store 	cache_value[20] 	0.98002508608529
scalar geant_cost_network.node[20].content_store 	average_price_of_cache[20] 	9.6086956521739
scalar geant_cost_network.node[20].content_store 	correction_factor[20] 	0.0027225701061802
scalar geant_cost_network.node[20].content_store 	kappa[20] 	1
scalar geant_cost_network.node[21].core_layer 	interests[21] 	240407
scalar geant_cost_network.node[21].core_layer 	data[21] 	235553
scalar geant_cost_network.node[21].content_store 	p_hit[21] 	0.0093716073159267
scalar geant_cost_network.node[21].content_store 	hits[21] 	2253
scalar geant_cost_network.node[21].content_store 	misses[21] 	238154
scalar geant_cost_network.node[21].content_store 	decision_yes[21] 	905
scalar geant_cost_network.node[21].content_store 	decision_no[21] 	234648
scalar geant_cost_network.node[21].content_store 	decision_ratio[21] 	0.0038420228143985
scalar geant_cost_network.node[21].content_store 	cache_value[21] 	1.6629519059232
scalar geant_cost_network.node[21].content_store 	average_price_of_cache[21] 	9.2173913043478
scalar geant_cost_network.node[21].content_store 	correction_factor[21] 	0.0027225701061802
scalar geant_cost_network.node[21].content_store 	kappa[21] 	1
scalar geant_cost_network.client[0] 	hdistance[0] 	4.015919522822
scalar geant_cost_network.client[0] 	downloads[0] 	171676
scalar geant_cost_network.client[0] 	avg_time[0] 	0.055510727424
scalar geant_cost_network.client[0] 	interests_sent[0] 	180117
scalar geant_cost_network.client[1] 	hdistance[1] 	3.0032394216991
scalar geant_cost_network.client[1] 	downloads[1] 	179353
scalar geant_cost_network.client[1] 	avg_time[1] 	0.012001860334
scalar geant_cost_network.client[1] 	interests_sent[1] 	180916
scalar geant_cost_network.client[2] 	hdistance[2] 	3.3933771922407
scalar geant_cost_network.client[2] 	downloads[2] 	177387
scalar geant_cost_network.client[2] 	avg_time[2] 	0.017223503178
scalar geant_cost_network.client[2] 	interests_sent[2] 	180024
scalar geant_cost_network.client[3] 	hdistance[3] 	2.4146623393945
scalar geant_cost_network.client[3] 	downloads[3] 	179944
scalar geant_cost_network.client[3] 	avg_time[3] 	0.006459415101
scalar geant_cost_network.client[3] 	interests_sent[3] 	180569
scalar geant_cost_network.client[4] 	hdistance[4] 	2.4014266895889
scalar geant_cost_network.client[4] 	downloads[4] 	179156
scalar geant_cost_network.client[4] 	avg_time[4] 	0.004785594702
scalar geant_cost_network.client[4] 	interests_sent[4] 	179746
scalar geant_cost_network.client[5] 	hdistance[5] 	2.4044829653978
scalar geant_cost_network.client[5] 	downloads[5] 	180104
scalar geant_cost_network.client[5] 	avg_time[5] 	0.008187442369
scalar geant_cost_network.client[5] 	interests_sent[5] 	180795
scalar geant_cost_network.client[6] 	hdistance[6] 	2.530024608963
scalar geant_cost_network.client[6] 	downloads[6] 	179203
scalar geant_cost_network.client[6] 	avg_time[6] 	0.00553298043
scalar geant_cost_network.client[6] 	interests_sent[6] 	179629
scalar geant_cost_network.client[7] 	hdistance[7] 	2.1794326715989
scalar geant_cost_network.client[7] 	downloads[7] 	179226
scalar geant_cost_network.client[7] 	avg_time[7] 	0.004344785973
scalar geant_cost_network.client[7] 	interests_sent[7] 	179589
scalar geant_cost_network.client[8] 	hdistance[8] 	2.6603171587582
scalar geant_cost_network.client[8] 	downloads[8] 	178964
scalar geant_cost_network.client[8] 	avg_time[8] 	0.005224839205
scalar geant_cost_network.client[8] 	interests_sent[8] 	179714
scalar geant_cost_network.client[9] 	hdistance[9] 	3.1520878359889
scalar geant_cost_network.client[9] 	downloads[9] 	179061
scalar geant_cost_network.client[9] 	avg_time[9] 	0.00573755734
scalar geant_cost_network.client[9] 	interests_sent[9] 	179968
scalar geant_cost_network.client[10] 	hdistance[10] 	4.0511451022063
scalar geant_cost_network.client[10] 	downloads[10] 	178805
scalar geant_cost_network.client[10] 	avg_time[10] 	0.007586053953
scalar geant_cost_network.client[10] 	interests_sent[10] 	180030
scalar geant_cost_network.client[11] 	hdistance[11] 	3.8288864833334
scalar geant_cost_network.client[11] 	downloads[11] 	178291
scalar geant_cost_network.client[11] 	avg_time[11] 	0.00915668852
scalar geant_cost_network.client[11] 	interests_sent[11] 	179667
scalar geant_cost_network.client[12] 	hdistance[12] 	2.8914631286226
scalar geant_cost_network.client[12] 	downloads[12] 	179082
scalar geant_cost_network.client[12] 	avg_time[12] 	0.007561939622
scalar geant_cost_network.client[12] 	interests_sent[12] 	180107
scalar geant_cost_network.client[13] 	hdistance[13] 	2.8640107659111
scalar geant_cost_network.client[13] 	downloads[13] 	172396
scalar geant_cost_network.client[13] 	avg_time[13] 	0.0432880992
scalar geant_cost_network.client[13] 	interests_sent[13] 	179568
scalar geant_cost_network.client[14] 	hdistance[14] 	2.3915771466516
scalar geant_cost_network.client[14] 	downloads[14] 	177707
scalar geant_cost_network.client[14] 	avg_time[14] 	0.026927470071
scalar geant_cost_network.client[14] 	interests_sent[14] 	179833
scalar geant_cost_network.client[15] 	hdistance[15] 	2.8401480941295
scalar geant_cost_network.client[15] 	downloads[15] 	178265
scalar geant_cost_network.client[15] 	avg_time[15] 	0.011498768814
scalar geant_cost_network.client[15] 	interests_sent[15] 	180676
scalar geant_cost_network.client[16] 	hdistance[16] 	3.3515167325458
scalar geant_cost_network.client[16] 	downloads[16] 	176333
scalar geant_cost_network.client[16] 	avg_time[16] 	0.036528040716
scalar geant_cost_network.client[16] 	interests_sent[16] 	180317
scalar geant_cost_network.client[17] 	hdistance[17] 	3.0114481711603
scalar geant_cost_network.client[17] 	downloads[17] 	177845
scalar geant_cost_network.client[17] 	avg_time[17] 	0.013430722573
scalar geant_cost_network.client[17] 	interests_sent[17] 	180293
scalar geant_cost_network.client[18] 	hdistance[18] 	2.5954711673699
scalar geant_cost_network.client[18] 	downloads[18] 	177750
scalar geant_cost_network.client[18] 	avg_time[18] 	0.007955354316
scalar geant_cost_network.client[18] 	interests_sent[18] 	179352
scalar geant_cost_network.client[19] 	hdistance[19] 	3.5465979821585
scalar geant_cost_network.client[19] 	downloads[19] 	178012
scalar geant_cost_network.client[19] 	avg_time[19] 	0.00976988016
scalar geant_cost_network.client[19] 	interests_sent[19] 	179999
scalar geant_cost_network.client[20] 	hdistance[20] 	3.5451847113745
scalar geant_cost_network.client[20] 	downloads[20] 	178224
scalar geant_cost_network.client[20] 	avg_time[20] 	0.009567579214
scalar geant_cost_network.client[20] 	interests_sent[20] 	180137
scalar geant_cost_network.client[21] 	hdistance[21] 	3.3059281696235
scalar geant_cost_network.client[21] 	downloads[21] 	177947
scalar geant_cost_network.client[21] 	avg_time[21] 	0.010863897463
scalar geant_cost_network.client[21] 	interests_sent[21] 	179981
