version 2
run General-16-20150312-12:23:49-30701
attr D costaware0.01
attr F spr
attr R lru
attr a 0.8
attr configname General
attr csize 1e3
attr ctlg 1e5
attr datetime 20150312-12:23:49
attr experiment General
attr inifile omnetpp.ini
attr iterationvars "$rep=35, $net=geant_cost, $lambda=100, $a=0.8, $ctlg=1e5, $F=spr, $ttl=10, $D=costaware0.01, $R=lru, $csize=1e3, $window=60, $variance=0.05, $mytime=1800, $kappa=1, $priceratiovalue=10, $pricebits=0"
attr iterationvars2 "$rep=35, $net=geant_cost, $lambda=100, $a=0.8, $ctlg=1e5, $F=spr, $ttl=10, $D=costaware0.01, $R=lru, $csize=1e3, $window=60, $variance=0.05, $mytime=1800, $kappa=1, $priceratiovalue=10, $pricebits=0, $repetition=0"
attr kappa 1
attr lambda 100
attr measurement "$rep=35, $net=geant_cost, $lambda=100, $a=0.8, $ctlg=1e5, $F=spr, $ttl=10, $D=costaware0.01, $R=lru, $csize=1e3, $window=60, $variance=0.05, $mytime=1800, $kappa=1, $priceratiovalue=10, $pricebits=0"
attr mytime 1800
attr net geant_cost
attr network networks.${net=geant_cost}_network
attr pricebits 0
attr priceratiovalue 10
attr processid 30701
attr rep 35
attr repetition 0
attr replication #0
attr resultdir results
attr runnumber 16
attr seedset 35
attr ttl 10
attr variance 0.05
attr window 60

scalar . 	a 	0.8
scalar . 	csize 	1e3
scalar . 	ctlg 	1e5
scalar . 	kappa 	1
scalar . 	lambda 	100
scalar . 	mytime 	1800
scalar . 	pricebits 	0
scalar . 	priceratiovalue 	10
scalar . 	rep 	35
scalar . 	ttl 	10
scalar . 	variance 	0.05
scalar . 	window 	60
scalar geant_cost_network.content_distribution 	repo-0 	18
scalar geant_cost_network.content_distribution 	repo-1 	6
scalar geant_cost_network.content_distribution 	repo-2 	9
scalar geant_cost_network.content_distribution 	client-0 	14
scalar geant_cost_network.content_distribution 	client-1 	7
scalar geant_cost_network.content_distribution 	client-2 	20
scalar geant_cost_network.content_distribution 	client-3 	10
scalar geant_cost_network.content_distribution 	client-4 	19
scalar geant_cost_network.content_distribution 	client-5 	21
scalar geant_cost_network.content_distribution 	client-6 	2
scalar geant_cost_network.content_distribution 	client-7 	18
scalar geant_cost_network.content_distribution 	client-8 	13
scalar geant_cost_network.content_distribution 	client-9 	16
scalar geant_cost_network.content_distribution 	client-10 	12
scalar geant_cost_network.content_distribution 	client-11 	3
scalar geant_cost_network.content_distribution 	client-12 	1
scalar geant_cost_network.content_distribution 	client-13 	5
scalar geant_cost_network.content_distribution 	client-14 	6
scalar geant_cost_network.content_distribution 	client-15 	4
scalar geant_cost_network.content_distribution 	client-16 	11
scalar geant_cost_network.content_distribution 	client-17 	17
scalar geant_cost_network.content_distribution 	client-18 	8
scalar geant_cost_network.content_distribution 	client-19 	0
scalar geant_cost_network.content_distribution 	client-20 	15
scalar geant_cost_network.content_distribution 	client-21 	9
scalar geant_cost_network.content_distribution 	repo-0_card 	33353
scalar geant_cost_network.content_distribution 	repo-0_price 	0
scalar geant_cost_network.content_distribution 	repo-1_card 	33189
scalar geant_cost_network.content_distribution 	repo-1_price 	1
scalar geant_cost_network.content_distribution 	repo-2_card 	33458
scalar geant_cost_network.content_distribution 	repo-2_price 	10
scalar geant_cost_network.statistics 	repo_popularity[0] 	0.34167994354844
scalar geant_cost_network.statistics 	repo_popularity[1] 	0.33850734290185
scalar geant_cost_network.statistics 	repo_popularity[2] 	0.3198127135497
scalar geant_cost_network.statistics 	stabilization_time 	127.3
scalar geant_cost_network.statistics 	p_hit 	0.03233161631746
scalar geant_cost_network.statistics 	interests 	623077.13636364
scalar geant_cost_network.statistics 	data 	443048.95454545
scalar geant_cost_network.statistics 	hdistance 	3.3577676708321
scalar geant_cost_network.statistics 	avg_time 	0.015575233189
scalar geant_cost_network.statistics 	downloads 	3954832
scalar geant_cost_network.statistics 	total_cost 	11963859
scalar geant_cost_network.statistics 	total_replicas 	100000
scalar geant_cost_network.statistics 	inner_hit 	0.11750107210622
scalar geant_cost_network.statistics 	interests_sent 	3960624
scalar geant_cost_network.node[0].core_layer 	interests[0] 	180091
scalar geant_cost_network.node[0].core_layer 	data[0] 	177586
scalar geant_cost_network.node[0].core_layer 	repo_int[0] 	3490135
scalar geant_cost_network.node[0].content_store 	p_hit[0] 	0.0079570883608842
scalar geant_cost_network.node[0].content_store 	hits[0] 	1433
scalar geant_cost_network.node[0].content_store 	misses[0] 	178658
scalar geant_cost_network.node[0].content_store 	decision_yes[0] 	1488
scalar geant_cost_network.node[0].content_store 	decision_no[0] 	176098
scalar geant_cost_network.node[0].content_store 	decision_ratio[0] 	0.0083790388882006
scalar geant_cost_network.node[0].content_store 	cache_value[0] 	4.0850826344609
scalar geant_cost_network.node[0].content_store 	average_price_of_cache[0] 	9.2173913043478
scalar geant_cost_network.node[0].content_store 	correction_factor[0] 	0.0027225701061802
scalar geant_cost_network.node[0].content_store 	kappa[0] 	1
scalar geant_cost_network.node[1].core_layer 	interests[1] 	354029
scalar geant_cost_network.node[1].core_layer 	data[1] 	349275
scalar geant_cost_network.node[1].content_store 	p_hit[1] 	0.011256140033726
scalar geant_cost_network.node[1].content_store 	hits[1] 	3985
scalar geant_cost_network.node[1].content_store 	misses[1] 	350044
scalar geant_cost_network.node[1].content_store 	decision_yes[1] 	3102
scalar geant_cost_network.node[1].content_store 	decision_no[1] 	346173
scalar geant_cost_network.node[1].content_store 	decision_ratio[1] 	0.0088812540261971
scalar geant_cost_network.node[1].content_store 	cache_value[1] 	4.883317646594
scalar geant_cost_network.node[1].content_store 	average_price_of_cache[1] 	8.6304347826087
scalar geant_cost_network.node[1].content_store 	correction_factor[1] 	0.0027225701061802
scalar geant_cost_network.node[1].content_store 	kappa[1] 	1
scalar geant_cost_network.node[2].core_layer 	interests[2] 	179922
scalar geant_cost_network.node[2].core_layer 	data[2] 	177719
scalar geant_cost_network.node[2].content_store 	p_hit[2] 	0.010115494492058
scalar geant_cost_network.node[2].content_store 	hits[2] 	1820
scalar geant_cost_network.node[2].content_store 	misses[2] 	178102
scalar geant_cost_network.node[2].content_store 	decision_yes[2] 	1506
scalar geant_cost_network.node[2].content_store 	decision_no[2] 	176213
scalar geant_cost_network.node[2].content_store 	decision_ratio[2] 	0.0084740517333543
scalar geant_cost_network.node[2].content_store 	cache_value[2] 	6.6207242516852
scalar geant_cost_network.node[2].content_store 	average_price_of_cache[2] 	10
scalar geant_cost_network.node[2].content_store 	correction_factor[2] 	0.0027225701061802
scalar geant_cost_network.node[2].content_store 	kappa[2] 	1
scalar geant_cost_network.node[3].core_layer 	interests[3] 	1070362
scalar geant_cost_network.node[3].core_layer 	data[3] 	1054778
scalar geant_cost_network.node[3].content_store 	p_hit[3] 	0.010871088472872
scalar geant_cost_network.node[3].content_store 	hits[3] 	11636
scalar geant_cost_network.node[3].content_store 	misses[3] 	1058726
scalar geant_cost_network.node[3].content_store 	decision_yes[3] 	7529
scalar geant_cost_network.node[3].content_store 	decision_no[3] 	1047249
scalar geant_cost_network.node[3].content_store 	decision_ratio[3] 	0.0071379949145697
scalar geant_cost_network.node[3].content_store 	cache_value[3] 	4.7586174697628
scalar geant_cost_network.node[3].content_store 	average_price_of_cache[3] 	8.8260869565217
scalar geant_cost_network.node[3].content_store 	correction_factor[3] 	0.0027225701061802
scalar geant_cost_network.node[3].content_store 	kappa[3] 	1
scalar geant_cost_network.node[4].core_layer 	interests[4] 	1138581
scalar geant_cost_network.node[4].core_layer 	data[4] 	1127386
scalar geant_cost_network.node[4].content_store 	p_hit[4] 	0.0067830044590591
scalar geant_cost_network.node[4].content_store 	hits[4] 	7723
scalar geant_cost_network.node[4].content_store 	misses[4] 	1130858
scalar geant_cost_network.node[4].content_store 	decision_yes[4] 	6582
scalar geant_cost_network.node[4].content_store 	decision_no[4] 	1120804
scalar geant_cost_network.node[4].content_store 	decision_ratio[4] 	0.0058382843143342
scalar geant_cost_network.node[4].content_store 	cache_value[4] 	4.5813626459585
scalar geant_cost_network.node[4].content_store 	average_price_of_cache[4] 	10
scalar geant_cost_network.node[4].content_store 	correction_factor[4] 	0.0027225701061802
scalar geant_cost_network.node[4].content_store 	kappa[4] 	1
scalar geant_cost_network.node[5].core_layer 	interests[5] 	1047457
scalar geant_cost_network.node[5].core_layer 	data[5] 	974772
scalar geant_cost_network.node[5].content_store 	p_hit[5] 	0.06499646286196
scalar geant_cost_network.node[5].content_store 	hits[5] 	68081
scalar geant_cost_network.node[5].content_store 	misses[5] 	979376
scalar geant_cost_network.node[5].content_store 	decision_yes[5] 	3542
scalar geant_cost_network.node[5].content_store 	decision_no[5] 	971230
scalar geant_cost_network.node[5].content_store 	decision_ratio[5] 	0.0036336702326288
scalar geant_cost_network.node[5].content_store 	cache_value[5] 	2.4630564000328
scalar geant_cost_network.node[5].content_store 	average_price_of_cache[5] 	2.3695652173913
scalar geant_cost_network.node[5].content_store 	correction_factor[5] 	0.0027225701061802
scalar geant_cost_network.node[5].content_store 	kappa[5] 	1
scalar geant_cost_network.node[6].core_layer 	interests[6] 	1326302
scalar geant_cost_network.node[6].core_layer 	repo_load[6] 	1052629
scalar geant_cost_network.node[6].core_layer 	data[6] 	118414
scalar geant_cost_network.node[6].content_store 	p_hit[6] 	0.11702462938305
scalar geant_cost_network.node[6].content_store 	hits[6] 	155210
scalar geant_cost_network.node[6].content_store 	misses[6] 	1171092
scalar geant_cost_network.node[6].content_store 	decision_yes[6] 	4202
scalar geant_cost_network.node[6].content_store 	decision_no[6] 	1166841
scalar geant_cost_network.node[6].content_store 	decision_ratio[6] 	0.0035882542314842
scalar geant_cost_network.node[6].content_store 	cache_value[6] 	2.4196335753471
scalar geant_cost_network.node[6].content_store 	average_price_of_cache[6] 	1.7826086956522
scalar geant_cost_network.node[6].content_store 	correction_factor[6] 	0.0027225701061802
scalar geant_cost_network.node[6].content_store 	kappa[6] 	1
scalar geant_cost_network.node[7].core_layer 	interests[7] 	872392
scalar geant_cost_network.node[7].core_layer 	data[7] 	844879
scalar geant_cost_network.node[7].content_store 	p_hit[7] 	0.030569973131345
scalar geant_cost_network.node[7].content_store 	hits[7] 	26669
scalar geant_cost_network.node[7].content_store 	misses[7] 	845723
scalar geant_cost_network.node[7].content_store 	decision_yes[7] 	9824
scalar geant_cost_network.node[7].content_store 	decision_no[7] 	835055
scalar geant_cost_network.node[7].content_store 	decision_ratio[7] 	0.011627700534633
scalar geant_cost_network.node[7].content_store 	cache_value[7] 	8.6040687116175
scalar geant_cost_network.node[7].content_store 	average_price_of_cache[7] 	9.4130434782609
scalar geant_cost_network.node[7].content_store 	correction_factor[7] 	0.0027225701061802
scalar geant_cost_network.node[7].content_store 	kappa[7] 	1
scalar geant_cost_network.node[8].core_layer 	interests[8] 	668881
scalar geant_cost_network.node[8].core_layer 	data[8] 	654768
scalar geant_cost_network.node[8].content_store 	p_hit[8] 	0.020586621536566
scalar geant_cost_network.node[8].content_store 	hits[8] 	13770
scalar geant_cost_network.node[8].content_store 	misses[8] 	655111
scalar geant_cost_network.node[8].content_store 	decision_yes[8] 	11076
scalar geant_cost_network.node[8].content_store 	decision_no[8] 	643692
scalar geant_cost_network.node[8].content_store 	decision_ratio[8] 	0.01691591525548
scalar geant_cost_network.node[8].content_store 	cache_value[8] 	5.1998886577236
scalar geant_cost_network.node[8].content_store 	average_price_of_cache[8] 	9.6086956521739
scalar geant_cost_network.node[8].content_store 	correction_factor[8] 	0.0027225701061802
scalar geant_cost_network.node[8].content_store 	kappa[8] 	1
scalar geant_cost_network.node[9].core_layer 	interests[9] 	1391876
scalar geant_cost_network.node[9].core_layer 	repo_load[9] 	1091123
scalar geant_cost_network.node[9].core_layer 	data[9] 	242153
scalar geant_cost_network.node[9].content_store 	p_hit[9] 	0.04187226448333
scalar geant_cost_network.node[9].content_store 	hits[9] 	58281
scalar geant_cost_network.node[9].content_store 	misses[9] 	1333595
scalar geant_cost_network.node[9].content_store 	decision_yes[9] 	29974
scalar geant_cost_network.node[9].content_store 	decision_no[9] 	1303302
scalar geant_cost_network.node[9].content_store 	decision_ratio[9] 	0.022481466703068
scalar geant_cost_network.node[9].content_store 	cache_value[9] 	9.7661128244297
scalar geant_cost_network.node[9].content_store 	average_price_of_cache[9] 	10
scalar geant_cost_network.node[9].content_store 	correction_factor[9] 	0.0027225701061802
scalar geant_cost_network.node[9].content_store 	kappa[9] 	1
scalar geant_cost_network.node[10].core_layer 	interests[10] 	235526
scalar geant_cost_network.node[10].core_layer 	data[10] 	226427
scalar geant_cost_network.node[10].content_store 	p_hit[10] 	0.037983067686795
scalar geant_cost_network.node[10].content_store 	hits[10] 	8946
scalar geant_cost_network.node[10].content_store 	misses[10] 	226580
scalar geant_cost_network.node[10].content_store 	decision_yes[10] 	2900
scalar geant_cost_network.node[10].content_store 	decision_no[10] 	223527
scalar geant_cost_network.node[10].content_store 	decision_ratio[10] 	0.012807659863885
scalar geant_cost_network.node[10].content_store 	cache_value[10] 	12.102030666827
scalar geant_cost_network.node[10].content_store 	average_price_of_cache[10] 	9.2173913043478
scalar geant_cost_network.node[10].content_store 	correction_factor[10] 	0.0027225701061802
scalar geant_cost_network.node[10].content_store 	kappa[10] 	1
scalar geant_cost_network.node[11].core_layer 	interests[11] 	179784
scalar geant_cost_network.node[11].core_layer 	data[11] 	177372
scalar geant_cost_network.node[11].content_store 	p_hit[11] 	0.012259155430962
scalar geant_cost_network.node[11].content_store 	hits[11] 	2204
scalar geant_cost_network.node[11].content_store 	misses[11] 	177580
scalar geant_cost_network.node[11].content_store 	decision_yes[11] 	1444
scalar geant_cost_network.node[11].content_store 	decision_no[11] 	175928
scalar geant_cost_network.node[11].content_store 	decision_ratio[11] 	0.00814108201971
scalar geant_cost_network.node[11].content_store 	cache_value[11] 	5.1406783755525
scalar geant_cost_network.node[11].content_store 	average_price_of_cache[11] 	9.6086956521739
scalar geant_cost_network.node[11].content_store 	correction_factor[11] 	0.0027225701061802
scalar geant_cost_network.node[11].content_store 	kappa[11] 	1
scalar geant_cost_network.node[12].core_layer 	interests[12] 	967766
scalar geant_cost_network.node[12].core_layer 	data[12] 	938897
scalar geant_cost_network.node[12].content_store 	p_hit[12] 	0.028776584422267
scalar geant_cost_network.node[12].content_store 	hits[12] 	27849
scalar geant_cost_network.node[12].content_store 	misses[12] 	939917
scalar geant_cost_network.node[12].content_store 	decision_yes[12] 	15004
scalar geant_cost_network.node[12].content_store 	decision_no[12] 	923893
scalar geant_cost_network.node[12].content_store 	decision_ratio[12] 	0.015980453659986
scalar geant_cost_network.node[12].content_store 	cache_value[12] 	8.2672834843404
scalar geant_cost_network.node[12].content_store 	average_price_of_cache[12] 	10
scalar geant_cost_network.node[12].content_store 	correction_factor[12] 	0.0027225701061802
scalar geant_cost_network.node[12].content_store 	kappa[12] 	1
scalar geant_cost_network.node[13].core_layer 	interests[13] 	291780
scalar geant_cost_network.node[13].core_layer 	data[13] 	284325
scalar geant_cost_network.node[13].content_store 	p_hit[13] 	0.021567619439304
scalar geant_cost_network.node[13].content_store 	hits[13] 	6293
scalar geant_cost_network.node[13].content_store 	misses[13] 	285487
scalar geant_cost_network.node[13].content_store 	decision_yes[13] 	4103
scalar geant_cost_network.node[13].content_store 	decision_no[13] 	280222
scalar geant_cost_network.node[13].content_store 	decision_ratio[13] 	0.014430669128638
scalar geant_cost_network.node[13].content_store 	cache_value[13] 	6.262171368585
scalar geant_cost_network.node[13].content_store 	average_price_of_cache[13] 	9.4130434782609
scalar geant_cost_network.node[13].content_store 	correction_factor[13] 	0.0027225701061802
scalar geant_cost_network.node[13].content_store 	kappa[13] 	1
scalar geant_cost_network.node[14].core_layer 	interests[14] 	844165
scalar geant_cost_network.node[14].core_layer 	data[14] 	808917
scalar geant_cost_network.node[14].content_store 	p_hit[14] 	0.034463641586657
scalar geant_cost_network.node[14].content_store 	hits[14] 	29093
scalar geant_cost_network.node[14].content_store 	misses[14] 	815072
scalar geant_cost_network.node[14].content_store 	decision_yes[14] 	3666
scalar geant_cost_network.node[14].content_store 	decision_no[14] 	805251
scalar geant_cost_network.node[14].content_store 	decision_ratio[14] 	0.0045319853582012
scalar geant_cost_network.node[14].content_store 	cache_value[14] 	2.8682444090138
scalar geant_cost_network.node[14].content_store 	average_price_of_cache[14] 	6.6739130434783
scalar geant_cost_network.node[14].content_store 	correction_factor[14] 	0.0027225701061802
scalar geant_cost_network.node[14].content_store 	kappa[14] 	1
scalar geant_cost_network.node[15].core_layer 	interests[15] 	236997
scalar geant_cost_network.node[15].core_layer 	data[15] 	230566
scalar geant_cost_network.node[15].content_store 	p_hit[15] 	0.026042523745026
scalar geant_cost_network.node[15].content_store 	hits[15] 	6172
scalar geant_cost_network.node[15].content_store 	misses[15] 	230825
scalar geant_cost_network.node[15].content_store 	decision_yes[15] 	2765
scalar geant_cost_network.node[15].content_store 	decision_no[15] 	227801
scalar geant_cost_network.node[15].content_store 	decision_ratio[15] 	0.011992227821969
scalar geant_cost_network.node[15].content_store 	cache_value[15] 	8.3634600812658
scalar geant_cost_network.node[15].content_store 	average_price_of_cache[15] 	9.6086956521739
scalar geant_cost_network.node[15].content_store 	correction_factor[15] 	0.0027225701061802
scalar geant_cost_network.node[15].content_store 	kappa[15] 	1
scalar geant_cost_network.node[16].core_layer 	interests[16] 	180292
scalar geant_cost_network.node[16].core_layer 	data[16] 	178480
scalar geant_cost_network.node[16].content_store 	p_hit[16] 	0.0073713753244736
scalar geant_cost_network.node[16].content_store 	hits[16] 	1329
scalar geant_cost_network.node[16].content_store 	misses[16] 	178963
scalar geant_cost_network.node[16].content_store 	decision_yes[16] 	1458
scalar geant_cost_network.node[16].content_store 	decision_no[16] 	177022
scalar geant_cost_network.node[16].content_store 	decision_ratio[16] 	0.0081689825190498
scalar geant_cost_network.node[16].content_store 	cache_value[16] 	4.4124482734628
scalar geant_cost_network.node[16].content_store 	average_price_of_cache[16] 	9.0217391304348
scalar geant_cost_network.node[16].content_store 	correction_factor[16] 	0.0027225701061802
scalar geant_cost_network.node[16].content_store 	kappa[16] 	1
scalar geant_cost_network.node[17].core_layer 	interests[17] 	241591
scalar geant_cost_network.node[17].core_layer 	data[17] 	235925
scalar geant_cost_network.node[17].content_store 	p_hit[17] 	0.022612597323576
scalar geant_cost_network.node[17].content_store 	hits[17] 	5463
scalar geant_cost_network.node[17].content_store 	misses[17] 	236128
scalar geant_cost_network.node[17].content_store 	decision_yes[17] 	1465
scalar geant_cost_network.node[17].content_store 	decision_no[17] 	234460
scalar geant_cost_network.node[17].content_store 	decision_ratio[17] 	0.0062096005086362
scalar geant_cost_network.node[17].content_store 	cache_value[17] 	4.90130468632
scalar geant_cost_network.node[17].content_store 	average_price_of_cache[17] 	8.8260869565217
scalar geant_cost_network.node[17].content_store 	correction_factor[17] 	0.0027225701061802
scalar geant_cost_network.node[17].content_store 	kappa[17] 	1
scalar geant_cost_network.node[18].core_layer 	interests[18] 	1698918
scalar geant_cost_network.node[18].core_layer 	repo_load[18] 	1346383
scalar geant_cost_network.node[18].core_layer 	data[18] 	348096
scalar geant_cost_network.node[18].content_store 	p_hit[18] 	0.0019606596669174
scalar geant_cost_network.node[18].content_store 	hits[18] 	3331
scalar geant_cost_network.node[18].content_store 	misses[18] 	1695587
scalar geant_cost_network.node[18].content_store 	decision_yes[18] 	4347
scalar geant_cost_network.node[18].content_store 	decision_no[18] 	1690132
scalar geant_cost_network.node[18].content_store 	decision_ratio[18] 	0.0025653903058108
scalar geant_cost_network.node[18].content_store 	cache_value[18] 	3.0985648359412
scalar geant_cost_network.node[18].content_store 	average_price_of_cache[18] 	9.2173913043478
scalar geant_cost_network.node[18].content_store 	correction_factor[18] 	0.0027225701061802
scalar geant_cost_network.node[18].content_store 	kappa[18] 	1
scalar geant_cost_network.node[19].core_layer 	interests[19] 	179942
scalar geant_cost_network.node[19].core_layer 	data[19] 	178523
scalar geant_cost_network.node[19].content_store 	p_hit[19] 	0.0066910448922431
scalar geant_cost_network.node[19].content_store 	hits[19] 	1204
scalar geant_cost_network.node[19].content_store 	misses[19] 	178738
scalar geant_cost_network.node[19].content_store 	decision_yes[19] 	1430
scalar geant_cost_network.node[19].content_store 	decision_no[19] 	177093
scalar geant_cost_network.node[19].content_store 	decision_ratio[19] 	0.0080101723587437
scalar geant_cost_network.node[19].content_store 	cache_value[19] 	3.5775426444451
scalar geant_cost_network.node[19].content_store 	average_price_of_cache[19] 	9.2173913043478
scalar geant_cost_network.node[19].content_store 	correction_factor[19] 	0.0027225701061802
scalar geant_cost_network.node[19].content_store 	kappa[19] 	1
scalar geant_cost_network.node[20].core_layer 	interests[20] 	180123
scalar geant_cost_network.node[20].core_layer 	data[20] 	178721
scalar geant_cost_network.node[20].content_store 	p_hit[20] 	0.0066399071745418
scalar geant_cost_network.node[20].content_store 	hits[20] 	1196
scalar geant_cost_network.node[20].content_store 	misses[20] 	178927
scalar geant_cost_network.node[20].content_store 	decision_yes[20] 	1401
scalar geant_cost_network.node[20].content_store 	decision_no[20] 	177320
scalar geant_cost_network.node[20].content_store 	decision_ratio[20] 	0.0078390340251006
scalar geant_cost_network.node[20].content_store 	cache_value[20] 	3.4455642797886
scalar geant_cost_network.node[20].content_store 	average_price_of_cache[20] 	8.0434782608696
scalar geant_cost_network.node[20].content_store 	correction_factor[20] 	0.0027225701061802
scalar geant_cost_network.node[20].content_store 	kappa[20] 	1
scalar geant_cost_network.node[21].core_layer 	interests[21] 	240920
scalar geant_cost_network.node[21].core_layer 	data[21] 	239098
scalar geant_cost_network.node[21].content_store 	p_hit[21] 	0.0062427361779844
scalar geant_cost_network.node[21].content_store 	hits[21] 	1504
scalar geant_cost_network.node[21].content_store 	misses[21] 	239416
scalar geant_cost_network.node[21].content_store 	decision_yes[21] 	1442
scalar geant_cost_network.node[21].content_store 	decision_no[21] 	237656
scalar geant_cost_network.node[21].content_store 	decision_ratio[21] 	0.0060309998410694
scalar geant_cost_network.node[21].content_store 	cache_value[21] 	2.9325684900371
scalar geant_cost_network.node[21].content_store 	average_price_of_cache[21] 	8.6304347826087
scalar geant_cost_network.node[21].content_store 	correction_factor[21] 	0.0027225701061802
scalar geant_cost_network.node[21].content_store 	kappa[21] 	1
scalar geant_cost_network.client[0] 	hdistance[0] 	4.4064428915366
scalar geant_cost_network.client[0] 	downloads[0] 	179019
scalar geant_cost_network.client[0] 	avg_time[0] 	0.057774594767
scalar geant_cost_network.client[0] 	interests_sent[0] 	180091
scalar geant_cost_network.client[1] 	hdistance[1] 	3.4375854075496
scalar geant_cost_network.client[1] 	downloads[1] 	180751
scalar geant_cost_network.client[1] 	avg_time[1] 	0.013081427172
scalar geant_cost_network.client[1] 	interests_sent[1] 	181001
scalar geant_cost_network.client[2] 	hdistance[2] 	3.7797135998307
scalar geant_cost_network.client[2] 	downloads[2] 	179539
scalar geant_cost_network.client[2] 	avg_time[2] 	0.01820984834
scalar geant_cost_network.client[2] 	interests_sent[2] 	179922
scalar geant_cost_network.client[3] 	hdistance[3] 	2.8079222637574
scalar geant_cost_network.client[3] 	downloads[3] 	180302
scalar geant_cost_network.client[3] 	avg_time[3] 	0.007344969079
scalar geant_cost_network.client[3] 	interests_sent[3] 	180461
scalar geant_cost_network.client[4] 	hdistance[4] 	2.7881751475603
scalar geant_cost_network.client[4] 	downloads[4] 	179757
scalar geant_cost_network.client[4] 	avg_time[4] 	0.00522338524
scalar geant_cost_network.client[4] 	interests_sent[4] 	179846
scalar geant_cost_network.client[5] 	hdistance[5] 	2.7874527220472
scalar geant_cost_network.client[5] 	downloads[5] 	180581
scalar geant_cost_network.client[5] 	avg_time[5] 	0.008898662399
scalar geant_cost_network.client[5] 	interests_sent[5] 	180696
scalar geant_cost_network.client[6] 	hdistance[6] 	2.8415873015873
scalar geant_cost_network.client[6] 	downloads[6] 	179550
scalar geant_cost_network.client[6] 	avg_time[6] 	0.005821984855
scalar geant_cost_network.client[6] 	interests_sent[6] 	179599
scalar geant_cost_network.client[7] 	hdistance[7] 	2.5087049565867
scalar geant_cost_network.client[7] 	downloads[7] 	179438
scalar geant_cost_network.client[7] 	avg_time[7] 	0.004675106437
scalar geant_cost_network.client[7] 	interests_sent[7] 	179516
scalar geant_cost_network.client[8] 	hdistance[8] 	2.9057731809553
scalar geant_cost_network.client[8] 	downloads[8] 	179641
scalar geant_cost_network.client[8] 	avg_time[8] 	0.005418914261
scalar geant_cost_network.client[8] 	interests_sent[8] 	179761
scalar geant_cost_network.client[9] 	hdistance[9] 	3.2854129915805
scalar geant_cost_network.client[9] 	downloads[9] 	179701
scalar geant_cost_network.client[9] 	avg_time[9] 	0.005832735339
scalar geant_cost_network.client[9] 	interests_sent[9] 	179813
scalar geant_cost_network.client[10] 	hdistance[10] 	4.2187621599388
scalar geant_cost_network.client[10] 	downloads[10] 	179894
scalar geant_cost_network.client[10] 	avg_time[10] 	0.007746587816
scalar geant_cost_network.client[10] 	interests_sent[10] 	180043
scalar geant_cost_network.client[11] 	hdistance[11] 	4.1663195527242
scalar geant_cost_network.client[11] 	downloads[11] 	179576
scalar geant_cost_network.client[11] 	avg_time[11] 	0.009903008976
scalar geant_cost_network.client[11] 	interests_sent[11] 	179784
scalar geant_cost_network.client[12] 	hdistance[12] 	3.2033298323414
scalar geant_cost_network.client[12] 	downloads[12] 	179949
scalar geant_cost_network.client[12] 	avg_time[12] 	0.008262138214
scalar geant_cost_network.client[12] 	interests_sent[12] 	180153
scalar geant_cost_network.client[13] 	hdistance[13] 	3.1228249744115
scalar geant_cost_network.client[13] 	downloads[13] 	178791
scalar geant_cost_network.client[13] 	avg_time[13] 	0.044975044003
scalar geant_cost_network.client[13] 	interests_sent[13] 	179675
scalar geant_cost_network.client[14] 	hdistance[14] 	2.746584349299
scalar geant_cost_network.client[14] 	downloads[14] 	179468
scalar geant_cost_network.client[14] 	avg_time[14] 	0.031285330144
scalar geant_cost_network.client[14] 	interests_sent[14] 	179745
scalar geant_cost_network.client[15] 	hdistance[15] 	3.1156346105893
scalar geant_cost_network.client[15] 	downloads[15] 	180465
scalar geant_cost_network.client[15] 	avg_time[15] 	0.011822726033
scalar geant_cost_network.client[15] 	interests_sent[15] 	180708
scalar geant_cost_network.client[16] 	hdistance[16] 	3.7171999176905
scalar geant_cost_network.client[16] 	downloads[16] 	179809
scalar geant_cost_network.client[16] 	avg_time[16] 	0.0413319628
scalar geant_cost_network.client[16] 	interests_sent[16] 	180292
scalar geant_cost_network.client[17] 	hdistance[17] 	3.3311579391704
scalar geant_cost_network.client[17] 	downloads[17] 	180044
scalar geant_cost_network.client[17] 	avg_time[17] 	0.014017587718
scalar geant_cost_network.client[17] 	interests_sent[17] 	180159
scalar geant_cost_network.client[18] 	hdistance[18] 	3.0191288533845
scalar geant_cost_network.client[18] 	downloads[18] 	179258
scalar geant_cost_network.client[18] 	avg_time[18] 	0.008668166605
scalar geant_cost_network.client[18] 	interests_sent[18] 	179419
scalar geant_cost_network.client[19] 	hdistance[19] 	3.9892503630506
scalar geant_cost_network.client[19] 	downloads[19] 	179727
scalar geant_cost_network.client[19] 	avg_time[19] 	0.010573291859
scalar geant_cost_network.client[19] 	interests_sent[19] 	179942
scalar geant_cost_network.client[20] 	hdistance[20] 	3.9926743998621
scalar geant_cost_network.client[20] 	downloads[20] 	179917
scalar geant_cost_network.client[20] 	avg_time[20] 	0.010395604757
scalar geant_cost_network.client[20] 	interests_sent[20] 	180123
scalar geant_cost_network.client[21] 	hdistance[21] 	3.6992513428516
scalar geant_cost_network.client[21] 	downloads[21] 	179655
scalar geant_cost_network.client[21] 	avg_time[21] 	0.011392053347
scalar geant_cost_network.client[21] 	interests_sent[21] 	179875
