version 2
run General-6-20150720-22:55:47-24204
attr C 1e6
attr D lce
attr F spr
attr R lru_repr
attr a 1
attr brates 0.3_0.7_1.5_2.5_3.5
attr configname General
attr ctlg 1e8
attr datetime 20150720-22:55:47
attr experiment General
attr inifile omnetpp.ini
attr iterationvars "$net=abilene_nodelay, $rep=3, $lambda=100, $a=1, $ctlg=1e8, $brates=0.3_0.7_1.5_2.5_3.5, $F=spr, $ttl=1000, $D=lce, $R=lru_repr, $C=1e6, $window=60, $variance=0.05, $mytime=180000"
attr iterationvars2 "$net=abilene_nodelay, $rep=3, $lambda=100, $a=1, $ctlg=1e8, $brates=0.3_0.7_1.5_2.5_3.5, $F=spr, $ttl=1000, $D=lce, $R=lru_repr, $C=1e6, $window=60, $variance=0.05, $mytime=180000, $repetition=0"
attr lambda 100
attr measurement "$net=abilene_nodelay, $rep=3, $lambda=100, $a=1, $ctlg=1e8, $brates=0.3_0.7_1.5_2.5_3.5, $F=spr, $ttl=1000, $D=lce, $R=lru_repr, $C=1e6, $window=60, $variance=0.05, $mytime=180000"
attr mytime 180000
attr net abilene_nodelay
attr network networks.${net=abilene_nodelay}_network
attr processid 24204
attr rep 3
attr repetition 0
attr replication #0
attr resultdir results
attr runnumber 6
attr seedset 3
attr ttl 1000
attr variance 0.05
attr window 60

scalar . 	C 	1e6
scalar . 	a 	1
scalar . 	ctlg 	1e8
scalar . 	lambda 	100
scalar . 	mytime 	180000
scalar . 	rep 	3
scalar . 	ttl 	1000
scalar . 	variance 	0.05
scalar . 	window 	60
scalar abilene_nodelay_network.content_distribution 	repo-0 	9
scalar abilene_nodelay_network.content_distribution 	repo-1 	4
scalar abilene_nodelay_network.content_distribution 	repo-2 	0
scalar abilene_nodelay_network.content_distribution 	repo-3 	1
scalar abilene_nodelay_network.content_distribution 	repo-4 	10
scalar abilene_nodelay_network.content_distribution 	repo-5 	8
scalar abilene_nodelay_network.content_distribution 	repo-6 	6
scalar abilene_nodelay_network.content_distribution 	repo-7 	3
scalar abilene_nodelay_network.content_distribution 	repo-8 	5
scalar abilene_nodelay_network.content_distribution 	repo-9 	2
scalar abilene_nodelay_network.content_distribution 	repo-10 	7
scalar abilene_nodelay_network.content_distribution 	client-0 	8
scalar abilene_nodelay_network.content_distribution 	client-1 	10
scalar abilene_nodelay_network.content_distribution 	client-2 	9
scalar abilene_nodelay_network.content_distribution 	client-3 	2
scalar abilene_nodelay_network.content_distribution 	client-4 	0
scalar abilene_nodelay_network.content_distribution 	client-5 	6
scalar abilene_nodelay_network.content_distribution 	client-6 	7
scalar abilene_nodelay_network.content_distribution 	client-7 	1
scalar abilene_nodelay_network.content_distribution 	client-8 	4
scalar abilene_nodelay_network.content_distribution 	client-9 	5
scalar abilene_nodelay_network.content_distribution 	client-10 	3
scalar abilene_nodelay_network.content_distribution 	repo-0_card 	9090253
scalar abilene_nodelay_network.content_distribution 	repo-0_price 	0
scalar abilene_nodelay_network.content_distribution 	repo-1_card 	9092912
scalar abilene_nodelay_network.content_distribution 	repo-1_price 	0
scalar abilene_nodelay_network.content_distribution 	repo-2_card 	9089959
scalar abilene_nodelay_network.content_distribution 	repo-2_price 	0
scalar abilene_nodelay_network.content_distribution 	repo-3_card 	9087600
scalar abilene_nodelay_network.content_distribution 	repo-3_price 	0
scalar abilene_nodelay_network.content_distribution 	repo-4_card 	9091845
scalar abilene_nodelay_network.content_distribution 	repo-4_price 	0
scalar abilene_nodelay_network.content_distribution 	repo-5_card 	9096523
scalar abilene_nodelay_network.content_distribution 	repo-5_price 	0
scalar abilene_nodelay_network.content_distribution 	repo-6_card 	9091236
scalar abilene_nodelay_network.content_distribution 	repo-6_price 	0
scalar abilene_nodelay_network.content_distribution 	repo-7_card 	9088149
scalar abilene_nodelay_network.content_distribution 	repo-7_price 	0
scalar abilene_nodelay_network.content_distribution 	repo-8_card 	9087263
scalar abilene_nodelay_network.content_distribution 	repo-8_price 	0
scalar abilene_nodelay_network.content_distribution 	repo-9_card 	9094413
scalar abilene_nodelay_network.content_distribution 	repo-9_price 	0
scalar abilene_nodelay_network.content_distribution 	repo-10_card 	9089847
scalar abilene_nodelay_network.content_distribution 	repo-10_price 	0
scalar abilene_nodelay_network.statistics 	stabilization_time 	36060
scalar abilene_nodelay_network.statistics 	p_hit 	0.43100456223046
scalar abilene_nodelay_network.statistics 	interests 	32608272.636364
scalar abilene_nodelay_network.statistics 	data 	12012897.818182
scalar abilene_nodelay_network.statistics 	hdistance 	0.73158198770922
scalar abilene_nodelay_network.statistics 	avg_time 	0
scalar abilene_nodelay_network.statistics 	downloads 	197995148
scalar abilene_nodelay_network.statistics 	total_cost 	0
scalar abilene_nodelay_network.statistics 	total_replicas 	100000000
scalar abilene_nodelay_network.statistics 	"representations_downloaded 0.322946:0.0263845:0.0174337:0.0135069:0.619729:" 	0
scalar abilene_nodelay_network.statistics 	"slots_per_representation 100:233:500:833:1167:" 	0
scalar abilene_nodelay_network.statistics 	inner_hit 	0.63659884231102
scalar abilene_nodelay_network.statistics 	execution_time 	10028
scalar abilene_nodelay_network.node[0].core_layer 	interests[0] 	23932782
scalar abilene_nodelay_network.node[0].core_layer 	repo_load[0] 	6421902
scalar abilene_nodelay_network.node[0].core_layer 	data[0] 	5223585
scalar abilene_nodelay_network.node[0].core_layer 	slots_sent[face$o[1]->client[0]] 	13935702243
scalar abilene_nodelay_network.node[0].core_layer 	slots_sent[face$o[2]->node[1]] 	959705906
scalar abilene_nodelay_network.node[0].core_layer 	slots_sent[face$o[3]->node[10]] 	264512055
scalar abilene_nodelay_network.node[0].content_store 	p_hit[0] 	0.51340855400764
scalar abilene_nodelay_network.node[0].content_store 	hits[0] 	12287295
scalar abilene_nodelay_network.node[0].content_store 	misses[0] 	11645487
scalar abilene_nodelay_network.node[0].content_store 	decision_yes[0] 	5223585
scalar abilene_nodelay_network.node[0].content_store 	decision_no[0] 	6421902
scalar abilene_nodelay_network.node[0].content_store 	decision_ratio[0] 	0.44855015509442
scalar abilene_nodelay_network.node[0].content_store 	"representation_breakdown[0] 3592583:465647:172861:102632:451862:" 	0
scalar abilene_nodelay_network.node[0].proactive_component 	hdistance[0].proactive_component 	2.2140267593569
scalar abilene_nodelay_network.node[0].proactive_component 	downloads[0].proactive_component 	1538602
scalar abilene_nodelay_network.node[0].proactive_component 	avg_time[0].proactive_component 	0
scalar abilene_nodelay_network.node[1].core_layer 	interests[1] 	37023723
scalar abilene_nodelay_network.node[1].core_layer 	repo_load[1] 	6653501
scalar abilene_nodelay_network.node[1].core_layer 	data[1] 	15639591
scalar abilene_nodelay_network.node[1].core_layer 	slots_sent[face$o[1]->client[1]] 	14026302753
scalar abilene_nodelay_network.node[1].core_layer 	slots_sent[face$o[2]->node[0]] 	1076453350
scalar abilene_nodelay_network.node[1].core_layer 	slots_sent[face$o[3]->node[10]] 	850281228
scalar abilene_nodelay_network.node[1].core_layer 	slots_sent[face$o[4]->node[2]] 	2287624578
scalar abilene_nodelay_network.node[1].content_store 	p_hit[1] 	0.39787006293235
scalar abilene_nodelay_network.node[1].content_store 	hits[1] 	14730631
scalar abilene_nodelay_network.node[1].content_store 	misses[1] 	22293092
scalar abilene_nodelay_network.node[1].content_store 	decision_yes[1] 	15639591
scalar abilene_nodelay_network.node[1].content_store 	decision_no[1] 	6653501
scalar abilene_nodelay_network.node[1].content_store 	decision_ratio[1] 	0.70154427210007
scalar abilene_nodelay_network.node[1].content_store 	"representation_breakdown[1] 3119225:559564:240170:154961:407482:" 	0
scalar abilene_nodelay_network.node[1].proactive_component 	hdistance[1].proactive_component 	2.1163600570226
scalar abilene_nodelay_network.node[1].proactive_component 	downloads[1].proactive_component 	3830060
scalar abilene_nodelay_network.node[1].proactive_component 	avg_time[1].proactive_component 	0
scalar abilene_nodelay_network.node[2].core_layer 	interests[2] 	46490404
scalar abilene_nodelay_network.node[2].core_layer 	repo_load[2] 	6767142
scalar abilene_nodelay_network.node[2].core_layer 	data[2] 	23436351
scalar abilene_nodelay_network.node[2].core_layer 	slots_sent[face$o[1]->client[2]] 	14034579160
scalar abilene_nodelay_network.node[2].core_layer 	slots_sent[face$o[2]->node[1]] 	2437034430
scalar abilene_nodelay_network.node[2].core_layer 	slots_sent[face$o[3]->node[3]] 	2939390611
scalar abilene_nodelay_network.node[2].core_layer 	slots_sent[face$o[4]->node[8]] 	1177216706
scalar abilene_nodelay_network.node[2].content_store 	p_hit[2] 	0.35032844627463
scalar abilene_nodelay_network.node[2].content_store 	hits[2] 	16286911
scalar abilene_nodelay_network.node[2].content_store 	misses[2] 	30203493
scalar abilene_nodelay_network.node[2].content_store 	decision_yes[2] 	23436351
scalar abilene_nodelay_network.node[2].content_store 	decision_no[2] 	6767142
scalar abilene_nodelay_network.node[2].content_store 	decision_ratio[2] 	0.77594836464776
scalar abilene_nodelay_network.node[2].content_store 	"representation_breakdown[2] 3142590:563408:247162:162904:396047:" 	0
scalar abilene_nodelay_network.node[2].proactive_component 	hdistance[2].proactive_component 	2.0799298152497
scalar abilene_nodelay_network.node[2].proactive_component 	downloads[2].proactive_component 	5403453
scalar abilene_nodelay_network.node[2].proactive_component 	avg_time[2].proactive_component 	0
scalar abilene_nodelay_network.node[3].core_layer 	interests[3] 	44198605
scalar abilene_nodelay_network.node[3].core_layer 	repo_load[3] 	6467334
scalar abilene_nodelay_network.node[3].core_layer 	data[3] 	21504407
scalar abilene_nodelay_network.node[3].core_layer 	slots_sent[face$o[1]->client[3]] 	14310802763
scalar abilene_nodelay_network.node[3].core_layer 	slots_sent[face$o[2]->node[2]] 	2903785228
scalar abilene_nodelay_network.node[3].core_layer 	slots_sent[face$o[3]->node[4]] 	1792937110
scalar abilene_nodelay_network.node[3].core_layer 	slots_sent[face$o[4]->node[7]] 	1291768074
scalar abilene_nodelay_network.node[3].content_store 	p_hit[3] 	0.36713520709534
scalar abilene_nodelay_network.node[3].content_store 	hits[3] 	16226864
scalar abilene_nodelay_network.node[3].content_store 	misses[3] 	27971741
scalar abilene_nodelay_network.node[3].content_store 	decision_yes[3] 	21504407
scalar abilene_nodelay_network.node[3].content_store 	decision_no[3] 	6467334
scalar abilene_nodelay_network.node[3].content_store 	decision_ratio[3] 	0.7687904374633
scalar abilene_nodelay_network.node[3].content_store 	"representation_breakdown[3] 3130493:554550:243506:161135:401681:" 	0
scalar abilene_nodelay_network.node[3].proactive_component 	hdistance[3].proactive_component 	2.0671441923436
scalar abilene_nodelay_network.node[3].proactive_component 	downloads[3].proactive_component 	5075748
scalar abilene_nodelay_network.node[3].proactive_component 	avg_time[3].proactive_component 	0
scalar abilene_nodelay_network.node[4].core_layer 	interests[4] 	29954755
scalar abilene_nodelay_network.node[4].core_layer 	repo_load[4] 	6419963
scalar abilene_nodelay_network.node[4].core_layer 	data[4] 	9889168
scalar abilene_nodelay_network.node[4].core_layer 	slots_sent[face$o[1]->client[4]] 	14155672047
scalar abilene_nodelay_network.node[4].core_layer 	slots_sent[face$o[2]->node[3]] 	1649584209
scalar abilene_nodelay_network.node[4].core_layer 	slots_sent[face$o[3]->node[5]] 	954659077
scalar abilene_nodelay_network.node[4].content_store 	p_hit[4] 	0.45554116533418
scalar abilene_nodelay_network.node[4].content_store 	hits[4] 	13645624
scalar abilene_nodelay_network.node[4].content_store 	misses[4] 	16309131
scalar abilene_nodelay_network.node[4].content_store 	decision_yes[4] 	9889168
scalar abilene_nodelay_network.node[4].content_store 	decision_no[4] 	6419963
scalar abilene_nodelay_network.node[4].content_store 	decision_ratio[4] 	0.60635775137253
scalar abilene_nodelay_network.node[4].content_store 	"representation_breakdown[4] 2988298:505530:225031:146821:441786:" 	0
scalar abilene_nodelay_network.node[4].proactive_component 	hdistance[4].proactive_component 	2.138814287658
scalar abilene_nodelay_network.node[4].proactive_component 	downloads[4].proactive_component 	2631026
scalar abilene_nodelay_network.node[4].proactive_component 	avg_time[4].proactive_component 	0
scalar abilene_nodelay_network.node[5].core_layer 	interests[5] 	25307591
scalar abilene_nodelay_network.node[5].core_layer 	repo_load[5] 	5844748
scalar abilene_nodelay_network.node[5].core_layer 	data[5] 	6272569
scalar abilene_nodelay_network.node[5].core_layer 	slots_sent[face$o[1]->client[5]] 	14485960171
scalar abilene_nodelay_network.node[5].core_layer 	slots_sent[face$o[2]->node[4]] 	880584357
scalar abilene_nodelay_network.node[5].core_layer 	slots_sent[face$o[3]->node[6]] 	639242602
scalar abilene_nodelay_network.node[5].content_store 	p_hit[5] 	0.52119832345955
scalar abilene_nodelay_network.node[5].content_store 	hits[5] 	13190274
scalar abilene_nodelay_network.node[5].content_store 	misses[5] 	12117317
scalar abilene_nodelay_network.node[5].content_store 	decision_yes[5] 	6272569
scalar abilene_nodelay_network.node[5].content_store 	decision_no[5] 	5844748
scalar abilene_nodelay_network.node[5].content_store 	decision_ratio[5] 	0.51765328909032
scalar abilene_nodelay_network.node[5].content_store 	"representation_breakdown[5] 3410776:525598:200077:114006:435692:" 	0
scalar abilene_nodelay_network.node[5].proactive_component 	hdistance[5].proactive_component 	2.0942687820735
scalar abilene_nodelay_network.node[5].proactive_component 	downloads[5].proactive_component 	1930724
scalar abilene_nodelay_network.node[5].proactive_component 	avg_time[5].proactive_component 	0
scalar abilene_nodelay_network.node[6].core_layer 	interests[6] 	27618755
scalar abilene_nodelay_network.node[6].core_layer 	repo_load[6] 	5911007
scalar abilene_nodelay_network.node[6].core_layer 	data[6] 	8142731
scalar abilene_nodelay_network.node[6].core_layer 	slots_sent[face$o[1]->client[6]] 	14440532937
scalar abilene_nodelay_network.node[6].core_layer 	slots_sent[face$o[2]->node[5]] 	673819948
scalar abilene_nodelay_network.node[6].core_layer 	slots_sent[face$o[3]->node[7]] 	1367259093
scalar abilene_nodelay_network.node[6].content_store 	p_hit[6] 	0.49115237091607
scalar abilene_nodelay_network.node[6].content_store 	hits[6] 	13565017
scalar abilene_nodelay_network.node[6].content_store 	misses[6] 	14053738
scalar abilene_nodelay_network.node[6].content_store 	decision_yes[6] 	8142731
scalar abilene_nodelay_network.node[6].content_store 	decision_no[6] 	5911007
scalar abilene_nodelay_network.node[6].content_store 	decision_ratio[6] 	0.57939965865309
scalar abilene_nodelay_network.node[6].content_store 	"representation_breakdown[6] 3067073:532816:228769:138633:433831:" 	0
scalar abilene_nodelay_network.node[6].proactive_component 	hdistance[6].proactive_component 	2.0925079349687
scalar abilene_nodelay_network.node[6].proactive_component 	downloads[6].proactive_component 	2351301
scalar abilene_nodelay_network.node[6].proactive_component 	avg_time[6].proactive_component 	0
scalar abilene_nodelay_network.node[7].core_layer 	interests[7] 	35237349
scalar abilene_nodelay_network.node[7].core_layer 	repo_load[7] 	6622273
scalar abilene_nodelay_network.node[7].core_layer 	data[7] 	13741811
scalar abilene_nodelay_network.node[7].core_layer 	slots_sent[face$o[1]->client[7]] 	14312232538
scalar abilene_nodelay_network.node[7].core_layer 	slots_sent[face$o[2]->node[3]] 	1211692260
scalar abilene_nodelay_network.node[7].core_layer 	slots_sent[face$o[3]->node[6]] 	1525253395
scalar abilene_nodelay_network.node[7].core_layer 	slots_sent[face$o[4]->node[8]] 	1080410255
scalar abilene_nodelay_network.node[7].content_store 	p_hit[7] 	0.42208808046258
scalar abilene_nodelay_network.node[7].content_store 	hits[7] 	14873265
scalar abilene_nodelay_network.node[7].content_store 	misses[7] 	20364084
scalar abilene_nodelay_network.node[7].content_store 	decision_yes[7] 	13741811
scalar abilene_nodelay_network.node[7].content_store 	decision_no[7] 	6622273
scalar abilene_nodelay_network.node[7].content_store 	decision_ratio[7] 	0.67480624220564
scalar abilene_nodelay_network.node[7].content_store 	"representation_breakdown[7] 3013385:519759:231400:152661:429898:" 	0
scalar abilene_nodelay_network.node[7].proactive_component 	hdistance[7].proactive_component 	1.9814951118859
scalar abilene_nodelay_network.node[7].proactive_component 	downloads[7].proactive_component 	3717180
scalar abilene_nodelay_network.node[7].proactive_component 	avg_time[7].proactive_component 	0
scalar abilene_nodelay_network.node[8].core_layer 	interests[8] 	34151626
scalar abilene_nodelay_network.node[8].core_layer 	repo_load[8] 	6707095
scalar abilene_nodelay_network.node[8].core_layer 	data[8] 	12827310
scalar abilene_nodelay_network.node[8].core_layer 	slots_sent[face$o[1]->client[8]] 	14300533482
scalar abilene_nodelay_network.node[8].core_layer 	slots_sent[face$o[2]->node[2]] 	1109550636
scalar abilene_nodelay_network.node[8].core_layer 	slots_sent[face$o[3]->node[7]] 	1077732489
scalar abilene_nodelay_network.node[8].core_layer 	slots_sent[face$o[4]->node[9]] 	1382881159
scalar abilene_nodelay_network.node[8].content_store 	p_hit[8] 	0.42800951849262
scalar abilene_nodelay_network.node[8].content_store 	hits[8] 	14617221
scalar abilene_nodelay_network.node[8].content_store 	misses[8] 	19534405
scalar abilene_nodelay_network.node[8].content_store 	decision_yes[8] 	12827310
scalar abilene_nodelay_network.node[8].content_store 	decision_no[8] 	6707095
scalar abilene_nodelay_network.node[8].content_store 	decision_ratio[8] 	0.65665219903038
scalar abilene_nodelay_network.node[8].content_store 	"representation_breakdown[8] 2992215:507137:227822:151062:436906:" 	0
scalar abilene_nodelay_network.node[8].proactive_component 	hdistance[8].proactive_component 	1.9602572661168
scalar abilene_nodelay_network.node[8].proactive_component 	downloads[8].proactive_component 	3482775
scalar abilene_nodelay_network.node[8].proactive_component 	avg_time[8].proactive_component 	0
scalar abilene_nodelay_network.node[9].core_layer 	interests[9] 	27715991
scalar abilene_nodelay_network.node[9].core_layer 	repo_load[9] 	7482316
scalar abilene_nodelay_network.node[9].core_layer 	data[9] 	8165903
scalar abilene_nodelay_network.node[9].core_layer 	slots_sent[face$o[1]->client[9]] 	12785247821
scalar abilene_nodelay_network.node[9].core_layer 	slots_sent[face$o[2]->node[10]] 	815489065
scalar abilene_nodelay_network.node[9].core_layer 	slots_sent[face$o[3]->node[8]] 	1258818249
scalar abilene_nodelay_network.node[9].content_store 	p_hit[9] 	0.43540828108943
scalar abilene_nodelay_network.node[9].content_store 	hits[9] 	12067772
scalar abilene_nodelay_network.node[9].content_store 	misses[9] 	15648219
scalar abilene_nodelay_network.node[9].content_store 	decision_yes[9] 	8165903
scalar abilene_nodelay_network.node[9].content_store 	decision_no[9] 	7482316
scalar abilene_nodelay_network.node[9].content_store 	decision_ratio[9] 	0.52184232595415
scalar abilene_nodelay_network.node[9].content_store 	"representation_breakdown[9] 3119430:541865:229917:138546:427108:" 	0
scalar abilene_nodelay_network.node[9].proactive_component 	hdistance[9].proactive_component 	2.0362132152531
scalar abilene_nodelay_network.node[9].proactive_component 	downloads[9].proactive_component 	2384820
scalar abilene_nodelay_network.node[9].proactive_component 	avg_time[9].proactive_component 	0
scalar abilene_nodelay_network.node[10].core_layer 	interests[10] 	27059418
scalar abilene_nodelay_network.node[10].core_layer 	repo_load[10] 	6654385
scalar abilene_nodelay_network.node[10].core_layer 	data[10] 	7298450
scalar abilene_nodelay_network.node[10].core_layer 	slots_sent[face$o[1]->client[10]] 	13972149957
scalar abilene_nodelay_network.node[10].core_layer 	slots_sent[face$o[2]->node[0]] 	265975505
scalar abilene_nodelay_network.node[10].core_layer 	slots_sent[face$o[3]->node[1]] 	801673982
scalar abilene_nodelay_network.node[10].core_layer 	slots_sent[face$o[4]->node[9]] 	774949653
scalar abilene_nodelay_network.node[10].content_store 	p_hit[10] 	0.48436307831898
scalar abilene_nodelay_network.node[10].content_store 	hits[10] 	13106583
scalar abilene_nodelay_network.node[10].content_store 	misses[10] 	13952835
scalar abilene_nodelay_network.node[10].content_store 	decision_yes[10] 	7298450
scalar abilene_nodelay_network.node[10].content_store 	decision_no[10] 	6654385
scalar abilene_nodelay_network.node[10].content_store 	decision_ratio[10] 	0.52308007655792
scalar abilene_nodelay_network.node[10].content_store 	"representation_breakdown[10] 3209266:544419:223867:132326:425932:" 	0
scalar abilene_nodelay_network.node[10].proactive_component 	hdistance[10].proactive_component 	2.0217823038718
scalar abilene_nodelay_network.node[10].proactive_component 	downloads[10].proactive_component 	2332352
scalar abilene_nodelay_network.node[10].proactive_component 	avg_time[10].proactive_component 	0
scalar abilene_nodelay_network.client[0] 	hdistance[0].real 	0.83628957419247
scalar abilene_nodelay_network.client[0] 	downloads[0].real 	18004284
scalar abilene_nodelay_network.client[0] 	avg_time[0].real 	0
scalar abilene_nodelay_network.client[1] 	hdistance[1].real 	0.72030170871415
scalar abilene_nodelay_network.client[1] 	downloads[1].real 	17991658
scalar abilene_nodelay_network.client[1] 	avg_time[1].real 	0
scalar abilene_nodelay_network.client[2] 	hdistance[2].real 	0.65026765464398
scalar abilene_nodelay_network.client[2] 	downloads[2].real 	17997446
scalar abilene_nodelay_network.client[2] 	avg_time[2].real 	0
scalar abilene_nodelay_network.client[3] 	hdistance[3].real 	0.6533453160963
scalar abilene_nodelay_network.client[3] 	downloads[3].real 	17998075
scalar abilene_nodelay_network.client[3] 	avg_time[3].real 	0
scalar abilene_nodelay_network.client[4] 	hdistance[4].real 	0.76352877717371
scalar abilene_nodelay_network.client[4] 	downloads[4].real 	17995843
scalar abilene_nodelay_network.client[4] 	avg_time[4].real 	0
scalar abilene_nodelay_network.client[5] 	hdistance[5].real 	0.80237699399464
scalar abilene_nodelay_network.client[5] 	downloads[5].real 	17997353
scalar abilene_nodelay_network.client[5] 	avg_time[5].real 	0
scalar abilene_nodelay_network.client[6] 	hdistance[6].real 	0.76148508668484
scalar abilene_nodelay_network.client[6] 	downloads[6].real 	18006895
scalar abilene_nodelay_network.client[6] 	avg_time[6].real 	0
scalar abilene_nodelay_network.client[7] 	hdistance[7].real 	0.65995718741091
scalar abilene_nodelay_network.client[7] 	downloads[7].real 	18003583
scalar abilene_nodelay_network.client[7] 	avg_time[7].real 	0
scalar abilene_nodelay_network.client[8] 	hdistance[8].real 	0.64246697456931
scalar abilene_nodelay_network.client[8] 	downloads[8].real 	17996813
scalar abilene_nodelay_network.client[8] 	avg_time[8].real 	0
scalar abilene_nodelay_network.client[9] 	hdistance[9].real 	0.79738802413225
scalar abilene_nodelay_network.client[9] 	downloads[9].real 	18001468
scalar abilene_nodelay_network.client[9] 	avg_time[9].real 	0
scalar abilene_nodelay_network.client[10] 	hdistance[10].real 	0.75999456718888
scalar abilene_nodelay_network.client[10] 	downloads[10].real 	18001730
scalar abilene_nodelay_network.client[10] 	avg_time[10].real 	0
