version 2
run General-7-20150720-22:20:22-25319
attr C 11666667
attr D lce
attr F spr
attr R lru
attr a 1
attr brates 1
attr configname General
attr ctlg 1e8
attr datetime 20150720-22:20:22
attr experiment General
attr inifile omnetpp.ini
attr iterationvars "$net=abilene_nodelay, $rep=3, $lambda=100, $a=1, $ctlg=1e8, $brates=1, $F=spr, $ttl=1000, $D=lce, $R=lru, $C=11666667, $window=60, $variance=0.05, $mytime=180000"
attr iterationvars2 "$net=abilene_nodelay, $rep=3, $lambda=100, $a=1, $ctlg=1e8, $brates=1, $F=spr, $ttl=1000, $D=lce, $R=lru, $C=11666667, $window=60, $variance=0.05, $mytime=180000, $repetition=0"
attr lambda 100
attr measurement "$net=abilene_nodelay, $rep=3, $lambda=100, $a=1, $ctlg=1e8, $brates=1, $F=spr, $ttl=1000, $D=lce, $R=lru, $C=11666667, $window=60, $variance=0.05, $mytime=180000"
attr mytime 180000
attr net abilene_nodelay
attr network networks.${net=abilene_nodelay}_network
attr processid 25319
attr rep 3
attr repetition 0
attr replication #0
attr resultdir results
attr runnumber 7
attr seedset 3
attr ttl 1000
attr variance 0.05
attr window 60

scalar . 	C 	11666667
scalar . 	a 	1
scalar . 	brates 	1
scalar . 	ctlg 	1e8
scalar . 	lambda 	100
scalar . 	mytime 	180000
scalar . 	rep 	3
scalar . 	ttl 	1000
scalar . 	variance 	0.05
scalar . 	window 	60
scalar abilene_nodelay_network.content_distribution 	repo-0 	9
scalar abilene_nodelay_network.content_distribution 	repo-1 	4
scalar abilene_nodelay_network.content_distribution 	repo-2 	0
scalar abilene_nodelay_network.content_distribution 	repo-3 	1
scalar abilene_nodelay_network.content_distribution 	repo-4 	10
scalar abilene_nodelay_network.content_distribution 	repo-5 	8
scalar abilene_nodelay_network.content_distribution 	repo-6 	6
scalar abilene_nodelay_network.content_distribution 	repo-7 	3
scalar abilene_nodelay_network.content_distribution 	repo-8 	5
scalar abilene_nodelay_network.content_distribution 	repo-9 	2
scalar abilene_nodelay_network.content_distribution 	repo-10 	7
scalar abilene_nodelay_network.content_distribution 	client-0 	8
scalar abilene_nodelay_network.content_distribution 	client-1 	10
scalar abilene_nodelay_network.content_distribution 	client-2 	9
scalar abilene_nodelay_network.content_distribution 	client-3 	2
scalar abilene_nodelay_network.content_distribution 	client-4 	0
scalar abilene_nodelay_network.content_distribution 	client-5 	6
scalar abilene_nodelay_network.content_distribution 	client-6 	7
scalar abilene_nodelay_network.content_distribution 	client-7 	1
scalar abilene_nodelay_network.content_distribution 	client-8 	4
scalar abilene_nodelay_network.content_distribution 	client-9 	5
scalar abilene_nodelay_network.content_distribution 	client-10 	3
scalar abilene_nodelay_network.content_distribution 	repo-0_card 	9090253
scalar abilene_nodelay_network.content_distribution 	repo-0_price 	0
scalar abilene_nodelay_network.content_distribution 	repo-1_card 	9092912
scalar abilene_nodelay_network.content_distribution 	repo-1_price 	0
scalar abilene_nodelay_network.content_distribution 	repo-2_card 	9089959
scalar abilene_nodelay_network.content_distribution 	repo-2_price 	0
scalar abilene_nodelay_network.content_distribution 	repo-3_card 	9087600
scalar abilene_nodelay_network.content_distribution 	repo-3_price 	0
scalar abilene_nodelay_network.content_distribution 	repo-4_card 	9091845
scalar abilene_nodelay_network.content_distribution 	repo-4_price 	0
scalar abilene_nodelay_network.content_distribution 	repo-5_card 	9096523
scalar abilene_nodelay_network.content_distribution 	repo-5_price 	0
scalar abilene_nodelay_network.content_distribution 	repo-6_card 	9091236
scalar abilene_nodelay_network.content_distribution 	repo-6_price 	0
scalar abilene_nodelay_network.content_distribution 	repo-7_card 	9088149
scalar abilene_nodelay_network.content_distribution 	repo-7_price 	0
scalar abilene_nodelay_network.content_distribution 	repo-8_card 	9087263
scalar abilene_nodelay_network.content_distribution 	repo-8_price 	0
scalar abilene_nodelay_network.content_distribution 	repo-9_card 	9094413
scalar abilene_nodelay_network.content_distribution 	repo-9_price 	0
scalar abilene_nodelay_network.content_distribution 	repo-10_card 	9089847
scalar abilene_nodelay_network.content_distribution 	repo-10_price 	0
scalar abilene_nodelay_network.statistics 	stabilization_time 	36060
scalar abilene_nodelay_network.statistics 	p_hit 	0.54028887035462
scalar abilene_nodelay_network.statistics 	interests 	25323332.363636
scalar abilene_nodelay_network.statistics 	data 	7323773.4545455
scalar abilene_nodelay_network.statistics 	hdistance 	0.64675239285691
scalar abilene_nodelay_network.statistics 	avg_time 	0
scalar abilene_nodelay_network.statistics 	downloads 	197995148
scalar abilene_nodelay_network.statistics 	total_cost 	0
scalar abilene_nodelay_network.statistics 	total_replicas 	100000000
scalar abilene_nodelay_network.statistics 	"representations_downloaded 1:" 	0
scalar abilene_nodelay_network.statistics 	"slots_per_representation 100:" 	0
scalar abilene_nodelay_network.statistics 	inner_hit 	0.76012499558828
scalar abilene_nodelay_network.statistics 	execution_time 	74563
scalar abilene_nodelay_network.node[0].core_layer 	interests[0] 	20408962
scalar abilene_nodelay_network.node[0].core_layer 	repo_load[0] 	4183628
scalar abilene_nodelay_network.node[0].core_layer 	data[0] 	3915744
scalar abilene_nodelay_network.node[0].core_layer 	slots_sent[face$o[1]->client[0]] 	1800428400
scalar abilene_nodelay_network.node[0].core_layer 	slots_sent[face$o[2]->node[1]] 	173936900
scalar abilene_nodelay_network.node[0].core_layer 	slots_sent[face$o[3]->node[10]] 	66530900
scalar abilene_nodelay_network.node[0].content_store 	p_hit[0] 	0.60314630405995
scalar abilene_nodelay_network.node[0].content_store 	hits[0] 	12309590
scalar abilene_nodelay_network.node[0].content_store 	misses[0] 	8099372
scalar abilene_nodelay_network.node[0].content_store 	decision_yes[0] 	3915744
scalar abilene_nodelay_network.node[0].content_store 	decision_no[0] 	4183628
scalar abilene_nodelay_network.node[0].content_store 	decision_ratio[0] 	0.48346266846368
scalar abilene_nodelay_network.node[1].core_layer 	interests[1] 	27966528
scalar abilene_nodelay_network.node[1].core_layer 	repo_load[1] 	4415083
scalar abilene_nodelay_network.node[1].core_layer 	data[1] 	9005118
scalar abilene_nodelay_network.node[1].core_layer 	slots_sent[face$o[1]->client[1]] 	1799165800
scalar abilene_nodelay_network.node[1].core_layer 	slots_sent[face$o[2]->node[0]] 	313209400
scalar abilene_nodelay_network.node[1].core_layer 	slots_sent[face$o[3]->node[10]] 	223152800
scalar abilene_nodelay_network.node[1].core_layer 	slots_sent[face$o[4]->node[2]] 	461124800
scalar abilene_nodelay_network.node[1].content_store 	p_hit[1] 	0.52013346097163
scalar abilene_nodelay_network.node[1].content_store 	hits[1] 	14546327
scalar abilene_nodelay_network.node[1].content_store 	misses[1] 	13420201
scalar abilene_nodelay_network.node[1].content_store 	decision_yes[1] 	9005118
scalar abilene_nodelay_network.node[1].content_store 	decision_no[1] 	4415083
scalar abilene_nodelay_network.node[1].content_store 	decision_ratio[1] 	0.67101215548113
scalar abilene_nodelay_network.node[2].core_layer 	interests[2] 	32731704
scalar abilene_nodelay_network.node[2].core_layer 	repo_load[2] 	4462164
scalar abilene_nodelay_network.node[2].core_layer 	data[2] 	13064622
scalar abilene_nodelay_network.node[2].core_layer 	slots_sent[face$o[1]->client[2]] 	1799744600
scalar abilene_nodelay_network.node[2].core_layer 	slots_sent[face$o[2]->node[1]] 	559239600
scalar abilene_nodelay_network.node[2].core_layer 	slots_sent[face$o[3]->node[3]] 	636529200
scalar abilene_nodelay_network.node[2].core_layer 	slots_sent[face$o[4]->node[8]] 	277657000
scalar abilene_nodelay_network.node[2].content_store 	p_hit[2] 	0.46453181905837
scalar abilene_nodelay_network.node[2].content_store 	hits[2] 	15204918
scalar abilene_nodelay_network.node[2].content_store 	misses[2] 	17526786
scalar abilene_nodelay_network.node[2].content_store 	decision_yes[2] 	13064622
scalar abilene_nodelay_network.node[2].content_store 	decision_no[2] 	4462164
scalar abilene_nodelay_network.node[2].content_store 	decision_ratio[2] 	0.74540888443551
scalar abilene_nodelay_network.node[3].core_layer 	interests[3] 	31670126
scalar abilene_nodelay_network.node[3].core_layer 	repo_load[3] 	4173352
scalar abilene_nodelay_network.node[3].core_layer 	data[3] 	12088906
scalar abilene_nodelay_network.node[3].core_layer 	slots_sent[face$o[1]->client[3]] 	1799807500
scalar abilene_nodelay_network.node[3].core_layer 	slots_sent[face$o[2]->node[2]] 	611966400
scalar abilene_nodelay_network.node[3].core_layer 	slots_sent[face$o[3]->node[4]] 	449868900
scalar abilene_nodelay_network.node[3].core_layer 	slots_sent[face$o[4]->node[7]] 	305369800
scalar abilene_nodelay_network.node[3].content_store 	p_hit[3] 	0.48651110513422
scalar abilene_nodelay_network.node[3].content_store 	hits[3] 	15407868
scalar abilene_nodelay_network.node[3].content_store 	misses[3] 	16262258
scalar abilene_nodelay_network.node[3].content_store 	decision_yes[3] 	12088906
scalar abilene_nodelay_network.node[3].content_store 	decision_no[3] 	4173352
scalar abilene_nodelay_network.node[3].content_store 	decision_ratio[3] 	0.74337192289041
scalar abilene_nodelay_network.node[4].core_layer 	interests[4] 	23818620
scalar abilene_nodelay_network.node[4].core_layer 	repo_load[4] 	4151981
scalar abilene_nodelay_network.node[4].core_layer 	data[4] 	6328624
scalar abilene_nodelay_network.node[4].core_layer 	slots_sent[face$o[1]->client[4]] 	1799584300
scalar abilene_nodelay_network.node[4].core_layer 	slots_sent[face$o[2]->node[3]] 	320176400
scalar abilene_nodelay_network.node[4].core_layer 	slots_sent[face$o[3]->node[5]] 	262101300
scalar abilene_nodelay_network.node[4].content_store 	p_hit[4] 	0.5599826942115
scalar abilene_nodelay_network.node[4].content_store 	hits[4] 	13338015
scalar abilene_nodelay_network.node[4].content_store 	misses[4] 	10480605
scalar abilene_nodelay_network.node[4].content_store 	decision_yes[4] 	6328624
scalar abilene_nodelay_network.node[4].content_store 	decision_no[4] 	4151981
scalar abilene_nodelay_network.node[4].content_store 	decision_ratio[4] 	0.60384147670864
scalar abilene_nodelay_network.node[5].core_layer 	interests[5] 	21314219
scalar abilene_nodelay_network.node[5].core_layer 	repo_load[5] 	3789512
scalar abilene_nodelay_network.node[5].core_layer 	data[5] 	4459705
scalar abilene_nodelay_network.node[5].core_layer 	slots_sent[face$o[1]->client[5]] 	1799735300
scalar abilene_nodelay_network.node[5].core_layer 	slots_sent[face$o[2]->node[4]] 	182993500
scalar abilene_nodelay_network.node[5].core_layer 	slots_sent[face$o[3]->node[6]] 	148693100
scalar abilene_nodelay_network.node[5].content_store 	p_hit[5] 	0.61297118135082
scalar abilene_nodelay_network.node[5].content_store 	hits[5] 	13065002
scalar abilene_nodelay_network.node[5].content_store 	misses[5] 	8249217
scalar abilene_nodelay_network.node[5].content_store 	decision_yes[5] 	4459705
scalar abilene_nodelay_network.node[5].content_store 	decision_no[5] 	3789512
scalar abilene_nodelay_network.node[5].content_store 	decision_ratio[5] 	0.54062161293611
scalar abilene_nodelay_network.node[6].core_layer 	interests[6] 	22470486
scalar abilene_nodelay_network.node[6].core_layer 	repo_load[6] 	3727603
scalar abilene_nodelay_network.node[6].core_layer 	data[6] 	5441895
scalar abilene_nodelay_network.node[6].core_layer 	slots_sent[face$o[1]->client[6]] 	1800689500
scalar abilene_nodelay_network.node[6].core_layer 	slots_sent[face$o[2]->node[5]] 	183869200
scalar abilene_nodelay_network.node[6].core_layer 	slots_sent[face$o[3]->node[7]] 	262489900
scalar abilene_nodelay_network.node[6].content_store 	p_hit[6] 	0.59193147847359
scalar abilene_nodelay_network.node[6].content_store 	hits[6] 	13300988
scalar abilene_nodelay_network.node[6].content_store 	misses[6] 	9169498
scalar abilene_nodelay_network.node[6].content_store 	decision_yes[6] 	5441895
scalar abilene_nodelay_network.node[6].content_store 	decision_no[6] 	3727603
scalar abilene_nodelay_network.node[6].content_store 	decision_ratio[6] 	0.59347796357009
scalar abilene_nodelay_network.node[7].core_layer 	interests[7] 	26935926
scalar abilene_nodelay_network.node[7].core_layer 	repo_load[7] 	4345155
scalar abilene_nodelay_network.node[7].core_layer 	data[7] 	8133177
scalar abilene_nodelay_network.node[7].core_layer 	slots_sent[face$o[1]->client[7]] 	1800358300
scalar abilene_nodelay_network.node[7].core_layer 	slots_sent[face$o[2]->node[3]] 	252185000
scalar abilene_nodelay_network.node[7].core_layer 	slots_sent[face$o[3]->node[6]] 	395496400
scalar abilene_nodelay_network.node[7].core_layer 	slots_sent[face$o[4]->node[8]] 	245552900
scalar abilene_nodelay_network.node[7].content_store 	p_hit[7] 	0.53674018854967
scalar abilene_nodelay_network.node[7].content_store 	hits[7] 	14457594
scalar abilene_nodelay_network.node[7].content_store 	misses[7] 	12478332
scalar abilene_nodelay_network.node[7].content_store 	decision_yes[7] 	8133177
scalar abilene_nodelay_network.node[7].content_store 	decision_no[7] 	4345155
scalar abilene_nodelay_network.node[7].content_store 	decision_ratio[7] 	0.65178398843692
scalar abilene_nodelay_network.node[8].core_layer 	interests[8] 	26349038
scalar abilene_nodelay_network.node[8].core_layer 	repo_load[8] 	4412173
scalar abilene_nodelay_network.node[8].core_layer 	data[8] 	7715812
scalar abilene_nodelay_network.node[8].core_layer 	slots_sent[face$o[1]->client[8]] 	1799681300
scalar abilene_nodelay_network.node[8].core_layer 	slots_sent[face$o[2]->node[2]] 	233371000
scalar abilene_nodelay_network.node[8].core_layer 	slots_sent[face$o[3]->node[7]] 	245458000
scalar abilene_nodelay_network.node[8].core_layer 	slots_sent[face$o[4]->node[9]] 	356393500
scalar abilene_nodelay_network.node[8].content_store 	p_hit[8] 	0.53971811039173
scalar abilene_nodelay_network.node[8].content_store 	hits[8] 	14221053
scalar abilene_nodelay_network.node[8].content_store 	misses[8] 	12127985
scalar abilene_nodelay_network.node[8].content_store 	decision_yes[8] 	7715812
scalar abilene_nodelay_network.node[8].content_store 	decision_no[8] 	4412173
scalar abilene_nodelay_network.node[8].content_store 	decision_ratio[8] 	0.63619900585299
scalar abilene_nodelay_network.node[9].core_layer 	interests[9] 	22553853
scalar abilene_nodelay_network.node[9].core_layer 	repo_load[9] 	5324764
scalar abilene_nodelay_network.node[9].core_layer 	data[9] 	5442396
scalar abilene_nodelay_network.node[9].core_layer 	slots_sent[face$o[1]->client[9]] 	1800146800
scalar abilene_nodelay_network.node[9].core_layer 	slots_sent[face$o[2]->node[10]] 	206867200
scalar abilene_nodelay_network.node[9].core_layer 	slots_sent[face$o[3]->node[8]] 	248371300
scalar abilene_nodelay_network.node[9].content_store 	p_hit[9] 	0.52260219129742
scalar abilene_nodelay_network.node[9].content_store 	hits[9] 	11786693
scalar abilene_nodelay_network.node[9].content_store 	misses[9] 	10767160
scalar abilene_nodelay_network.node[9].content_store 	decision_yes[9] 	5442396
scalar abilene_nodelay_network.node[9].content_store 	decision_no[9] 	5324764
scalar abilene_nodelay_network.node[9].content_store 	decision_ratio[9] 	0.50546253608194
scalar abilene_nodelay_network.node[10].core_layer 	interests[10] 	22337194
scalar abilene_nodelay_network.node[10].core_layer 	repo_load[10] 	4508672
scalar abilene_nodelay_network.node[10].core_layer 	data[10] 	4965509
scalar abilene_nodelay_network.node[10].core_layer 	slots_sent[face$o[1]->client[10]] 	1800173000
scalar abilene_nodelay_network.node[10].core_layer 	slots_sent[face$o[2]->node[0]] 	78365000
scalar abilene_nodelay_network.node[10].core_layer 	slots_sent[face$o[3]->node[1]] 	167335300
scalar abilene_nodelay_network.node[10].core_layer 	slots_sent[face$o[4]->node[9]] 	187846100
scalar abilene_nodelay_network.node[10].content_store 	p_hit[10] 	0.57585626019096
scalar abilene_nodelay_network.node[10].content_store 	hits[10] 	12863013
scalar abilene_nodelay_network.node[10].content_store 	misses[10] 	9474181
scalar abilene_nodelay_network.node[10].content_store 	decision_yes[10] 	4965509
scalar abilene_nodelay_network.node[10].content_store 	decision_no[10] 	4508672
scalar abilene_nodelay_network.node[10].content_store 	decision_ratio[10] 	0.52410957738722
scalar abilene_nodelay_network.client[0] 	hdistance[0].real 	0.78275670390446
scalar abilene_nodelay_network.client[0] 	downloads[0].real 	18004284
scalar abilene_nodelay_network.client[0] 	avg_time[0].real 	0
scalar abilene_nodelay_network.client[1] 	hdistance[1].real 	0.59145938634443
scalar abilene_nodelay_network.client[1] 	downloads[1].real 	17991658
scalar abilene_nodelay_network.client[1] 	avg_time[1].real 	0
scalar abilene_nodelay_network.client[2] 	hdistance[2].real 	0.53378212664174
scalar abilene_nodelay_network.client[2] 	downloads[2].real 	17997446
scalar abilene_nodelay_network.client[2] 	avg_time[2].real 	0
scalar abilene_nodelay_network.client[3] 	hdistance[3].real 	0.53253945213565
scalar abilene_nodelay_network.client[3] 	downloads[3].real 	17998075
scalar abilene_nodelay_network.client[3] 	avg_time[3].real 	0
scalar abilene_nodelay_network.client[4] 	hdistance[4].real 	0.67105314266195
scalar abilene_nodelay_network.client[4] 	downloads[4].real 	17995843
scalar abilene_nodelay_network.client[4] 	avg_time[4].real 	0
scalar abilene_nodelay_network.client[5] 	hdistance[5].real 	0.75776054400887
scalar abilene_nodelay_network.client[5] 	downloads[5].real 	17997353
scalar abilene_nodelay_network.client[5] 	avg_time[5].real 	0
scalar abilene_nodelay_network.client[6] 	hdistance[6].real 	0.69898158455415
scalar abilene_nodelay_network.client[6] 	downloads[6].real 	18006895
scalar abilene_nodelay_network.client[6] 	avg_time[6].real 	0
scalar abilene_nodelay_network.client[7] 	hdistance[7].real 	0.5506511676036
scalar abilene_nodelay_network.client[7] 	downloads[7].real 	18003583
scalar abilene_nodelay_network.client[7] 	avg_time[7].real 	0
scalar abilene_nodelay_network.client[8] 	hdistance[8].real 	0.5416279537938
scalar abilene_nodelay_network.client[8] 	downloads[8].real 	17996813
scalar abilene_nodelay_network.client[8] 	avg_time[8].real 	0
scalar abilene_nodelay_network.client[9] 	hdistance[9].real 	0.74624108433821
scalar abilene_nodelay_network.client[9] 	downloads[9].real 	18001468
scalar abilene_nodelay_network.client[9] 	avg_time[9].real 	0
scalar abilene_nodelay_network.client[10] 	hdistance[10].real 	0.7074231754392
scalar abilene_nodelay_network.client[10] 	downloads[10].real 	18001730
scalar abilene_nodelay_network.client[10] 	avg_time[10].real 	0
