version 2
run General-66-20150404-07:50:08-27826
attr D lce
attr F nrr
attr R lru
attr a 1.1
attr configname General
attr csize 1e3
attr ctlg 1e5
attr datetime 20150404-07:50:08
attr experiment General
attr inifile omnetpp.ini
attr iterationvars "$rep=10, $net=cost_scenario, $lambda=100, $a=1.1, $ctlg=1e5, $F=nrr, $ttl=10, $D=lce, $R=lru, $csize=1e3, $window=60, $variance=0.05, $mytime=1800000, $kappa=1, $priceratiovalue=10, $splits=0.333_0.333_0.334, $pricebits=0"
attr iterationvars2 "$rep=10, $net=cost_scenario, $lambda=100, $a=1.1, $ctlg=1e5, $F=nrr, $ttl=10, $D=lce, $R=lru, $csize=1e3, $window=60, $variance=0.05, $mytime=1800000, $kappa=1, $priceratiovalue=10, $splits=0.333_0.333_0.334, $pricebits=0, $repetition=0"
attr kappa 1
attr lambda 100
attr measurement "$rep=10, $net=cost_scenario, $lambda=100, $a=1.1, $ctlg=1e5, $F=nrr, $ttl=10, $D=lce, $R=lru, $csize=1e3, $window=60, $variance=0.05, $mytime=1800000, $kappa=1, $priceratiovalue=10, $splits=0.333_0.333_0.334, $pricebits=0"
attr mytime 1800000
attr net cost_scenario
attr network networks.${net=cost_scenario}_network
attr pricebits 0
attr priceratiovalue 10
attr processid 27826
attr rep 10
attr repetition 0
attr replication #0
attr resultdir results
attr runnumber 66
attr seedset 10
attr splits 0.333_0.333_0.334
attr ttl 10
attr variance 0.05
attr window 60

scalar . 	a 	1.1
scalar . 	csize 	1e3
scalar . 	ctlg 	1e5
scalar . 	kappa 	1
scalar . 	lambda 	100
scalar . 	mytime 	1800000
scalar . 	pricebits 	0
scalar . 	priceratiovalue 	10
scalar . 	rep 	10
scalar . 	ttl 	10
scalar . 	variance 	0.05
scalar . 	window 	60
scalar cost_scenario_network.content_distribution 	repo-0 	1
scalar cost_scenario_network.content_distribution 	repo-1 	2
scalar cost_scenario_network.content_distribution 	repo-2 	3
scalar cost_scenario_network.content_distribution 	client-0 	0
scalar cost_scenario_network.content_distribution 	repo-0_card 	33053
scalar cost_scenario_network.content_distribution 	repo-0_price 	1
scalar cost_scenario_network.content_distribution 	repo-1_card 	33534
scalar cost_scenario_network.content_distribution 	repo-1_price 	0
scalar cost_scenario_network.content_distribution 	repo-2_card 	33413
scalar cost_scenario_network.content_distribution 	repo-2_price 	10
scalar cost_scenario_network.statistics 	repo_popularity[0] 	0.42837214009884
scalar cost_scenario_network.statistics 	repo_popularity[1] 	0.25527571360822
scalar cost_scenario_network.statistics 	repo_popularity[2] 	0.31635214629292
scalar cost_scenario_network.statistics 	stabilization_time 	83.6
scalar cost_scenario_network.statistics 	p_hit 	0.49956065268263
scalar cost_scenario_network.statistics 	interests 	60019997.75
scalar cost_scenario_network.statistics 	data 	15018184.25
scalar cost_scenario_network.statistics 	hdistance 	0.66744795740294
scalar cost_scenario_network.statistics 	avg_time 	0
scalar cost_scenario_network.statistics 	downloads 	180007254
scalar cost_scenario_network.statistics 	total_cost 	218279141
scalar cost_scenario_network.statistics 	total_replicas 	100000
scalar cost_scenario_network.statistics 	inner_hit 	0.66627602129856
scalar cost_scenario_network.statistics 	interests_sent 	180007254
scalar cost_scenario_network.node[0].core_layer 	interests[0] 	180007254
scalar cost_scenario_network.node[0].core_layer 	data[0] 	60072737
scalar cost_scenario_network.node[0].core_layer 	repo_int[0] 	60072737
scalar cost_scenario_network.node[0].content_store 	p_hit[0] 	0.66627602129856
scalar cost_scenario_network.node[0].content_store 	hits[0] 	119934517
scalar cost_scenario_network.node[0].content_store 	misses[0] 	60072737
scalar cost_scenario_network.node[0].content_store 	decision_yes[0] 	60072737
scalar cost_scenario_network.node[0].content_store 	decision_no[0] 	0
scalar cost_scenario_network.node[0].content_store 	decision_ratio[0] 	1
scalar cost_scenario_network.node[0].content_store 	cache_value[0] 	17.608627830333
scalar cost_scenario_network.node[0].content_store 	average_price_of_cache[0] 	3.485
scalar cost_scenario_network.node[1].core_layer 	interests[1] 	19746591
scalar cost_scenario_network.node[1].core_layer 	repo_load[1] 	19746591
scalar cost_scenario_network.node[1].core_layer 	data[1] 	0
scalar cost_scenario_network.node[1].content_store 	p_hit[1] 	0
scalar cost_scenario_network.node[1].content_store 	hits[1] 	0
scalar cost_scenario_network.node[1].content_store 	misses[1] 	19746591
scalar cost_scenario_network.node[1].content_store 	decision_yes[1] 	0
scalar cost_scenario_network.node[1].content_store 	decision_no[1] 	19746591
scalar cost_scenario_network.node[1].content_store 	decision_ratio[1] 	0
scalar cost_scenario_network.node[1].content_store 	cache_value[1] 	1.3022060559762e-316
scalar cost_scenario_network.node[1].content_store 	average_price_of_cache[1] 	-nan
scalar cost_scenario_network.node[2].core_layer 	interests[2] 	20472891
scalar cost_scenario_network.node[2].core_layer 	repo_load[2] 	20472891
scalar cost_scenario_network.node[2].core_layer 	data[2] 	0
scalar cost_scenario_network.node[2].content_store 	p_hit[2] 	0
scalar cost_scenario_network.node[2].content_store 	hits[2] 	0
scalar cost_scenario_network.node[2].content_store 	misses[2] 	20472891
scalar cost_scenario_network.node[2].content_store 	decision_yes[2] 	0
scalar cost_scenario_network.node[2].content_store 	decision_no[2] 	20472891
scalar cost_scenario_network.node[2].content_store 	decision_ratio[2] 	0
scalar cost_scenario_network.node[2].content_store 	cache_value[2] 	1.3023617854677e-316
scalar cost_scenario_network.node[2].content_store 	average_price_of_cache[2] 	-nan
scalar cost_scenario_network.node[3].core_layer 	interests[3] 	19853255
scalar cost_scenario_network.node[3].core_layer 	repo_load[3] 	19853255
scalar cost_scenario_network.node[3].core_layer 	data[3] 	0
scalar cost_scenario_network.node[3].content_store 	p_hit[3] 	0
scalar cost_scenario_network.node[3].content_store 	hits[3] 	0
scalar cost_scenario_network.node[3].content_store 	misses[3] 	19853255
scalar cost_scenario_network.node[3].content_store 	decision_yes[3] 	0
scalar cost_scenario_network.node[3].content_store 	decision_no[3] 	19853255
scalar cost_scenario_network.node[3].content_store 	decision_ratio[3] 	0
scalar cost_scenario_network.node[3].content_store 	cache_value[3] 	1.3025190959694e-316
scalar cost_scenario_network.node[3].content_store 	average_price_of_cache[3] 	-nan
scalar cost_scenario_network.client[0] 	hdistance[0] 	0.66744795740294
scalar cost_scenario_network.client[0] 	downloads[0] 	180007254
scalar cost_scenario_network.client[0] 	avg_time[0] 	0
scalar cost_scenario_network.client[0] 	interests_sent[0] 	180007254
