version 2
run General-3-20140904-10:43:39-10704
attr D fix0.01
attr F spr
attr R lru
attr a 1
attr configname General
attr csize 1e3
attr ctlg 1e5
attr datetime 20140904-10:43:39
attr experiment General
attr inifile omnetpp.ini
attr iterationvars "$net=abilene_cost, $rep=9, $priceratiovalue=10, $weights=0.333_0.333_0.334, $lambda=100, $a=1, $ctlg=1e5, $F=spr, $ttl=10, $D=fix0.01, $xi=1, $R=lru, $csize=1e3, $pricebits=0, $window=60, $variance=0.05, $mytime=1800"
attr iterationvars2 "$net=abilene_cost, $rep=9, $priceratiovalue=10, $weights=0.333_0.333_0.334, $lambda=100, $a=1, $ctlg=1e5, $F=spr, $ttl=10, $D=fix0.01, $xi=1, $R=lru, $csize=1e3, $pricebits=0, $window=60, $variance=0.05, $mytime=1800, $repetition=0"
attr lambda 100
attr measurement "$net=abilene_cost, $rep=9, $priceratiovalue=10, $weights=0.333_0.333_0.334, $lambda=100, $a=1, $ctlg=1e5, $F=spr, $ttl=10, $D=fix0.01, $xi=1, $R=lru, $csize=1e3, $pricebits=0, $window=60, $variance=0.05, $mytime=1800"
attr mytime 1800
attr net abilene_cost
attr network networks.${net=abilene_cost}_network
attr pricebits 0
attr priceratiovalue 10
attr processid 10704
attr rep 9
attr repetition 0
attr replication #0
attr resultdir results
attr runnumber 3
attr seedset 9
attr ttl 10
attr variance 0.05
attr weights 0.333_0.333_0.334
attr window 60
attr xi 1

scalar . 	a 	1
scalar . 	csize 	1e3
scalar . 	ctlg 	1e5
scalar . 	lambda 	100
scalar . 	mytime 	1800
scalar . 	pricebits 	0
scalar . 	priceratiovalue 	10
scalar . 	rep 	9
scalar . 	ttl 	10
scalar . 	variance 	0.05
scalar . 	window 	60
scalar . 	xi 	1
scalar abilene_cost_network.content_distribution 	repo-0 	1
scalar abilene_cost_network.content_distribution 	repo-1 	9
scalar abilene_cost_network.content_distribution 	repo-2 	5
scalar abilene_cost_network.content_distribution 	client-0 	0
scalar abilene_cost_network.content_distribution 	client-1 	3
scalar abilene_cost_network.content_distribution 	client-2 	7
scalar abilene_cost_network.content_distribution 	repo-0_card 	33404
scalar abilene_cost_network.content_distribution 	repo-0_price 	10
scalar abilene_cost_network.content_distribution 	repo-1_card 	33170
scalar abilene_cost_network.content_distribution 	repo-1_price 	0
scalar abilene_cost_network.content_distribution 	repo-2_card 	33426
scalar abilene_cost_network.content_distribution 	repo-2_price 	1
scalar abilene_cost_network.statistics 	repo_popularity[0] 	0.31986479737952
scalar abilene_cost_network.statistics 	repo_popularity[1] 	0.28163181829958
scalar abilene_cost_network.statistics 	repo_popularity[2] 	0.39850338432091
scalar abilene_cost_network.statistics 	stabilization_time 	488
scalar abilene_cost_network.statistics 	p_hit 	0.21286788550329
scalar abilene_cost_network.statistics 	interests 	117881.90909091
scalar abilene_cost_network.statistics 	data 	68764
scalar abilene_cost_network.statistics 	hdistance 	1.8890986221677
scalar abilene_cost_network.statistics 	avg_time 	0.009185231055
scalar abilene_cost_network.statistics 	downloads 	540192
scalar abilene_cost_network.statistics 	total_cost 	1014892
scalar abilene_cost_network.statistics 	total_replicas 	100000
scalar abilene_cost_network.statistics 	inner_hit 	0.51102200699011
scalar abilene_cost_network.statistics 	interests_sent 	540295
scalar abilene_cost_network.node[0].core_layer 	interests[0] 	180778
scalar abilene_cost_network.node[0].core_layer 	data[0] 	110125
scalar abilene_cost_network.node[0].core_layer 	repo_int[0] 	264142
scalar abilene_cost_network.node[0].content_store 	p_hit[0] 	0.39061722112204
scalar abilene_cost_network.node[0].content_store 	hits[0] 	70615
scalar abilene_cost_network.node[0].content_store 	misses[0] 	110163
scalar abilene_cost_network.node[0].content_store 	decision_yes[0] 	1071
scalar abilene_cost_network.node[0].content_store 	decision_no[0] 	109054
scalar abilene_cost_network.node[0].content_store 	decision_ratio[0] 	0.0097253121452894
scalar abilene_cost_network.node[1].core_layer 	interests[1] 	139595
scalar abilene_cost_network.node[1].core_layer 	repo_load[1] 	92851
scalar abilene_cost_network.node[1].core_layer 	data[1] 	35578
scalar abilene_cost_network.node[1].content_store 	p_hit[1] 	0.079988538271428
scalar abilene_cost_network.node[1].content_store 	hits[1] 	11166
scalar abilene_cost_network.node[1].content_store 	misses[1] 	128429
scalar abilene_cost_network.node[1].content_store 	decision_yes[1] 	1249
scalar abilene_cost_network.node[1].content_store 	decision_no[1] 	127180
scalar abilene_cost_network.node[1].content_store 	decision_ratio[1] 	0.0097252178246346
scalar abilene_cost_network.node[2].core_layer 	interests[2] 	143017
scalar abilene_cost_network.node[2].core_layer 	data[2] 	134235
scalar abilene_cost_network.node[2].content_store 	p_hit[2] 	0.061398295307551
scalar abilene_cost_network.node[2].content_store 	hits[2] 	8781
scalar abilene_cost_network.node[2].content_store 	misses[2] 	134236
scalar abilene_cost_network.node[2].content_store 	decision_yes[2] 	1316
scalar abilene_cost_network.node[2].content_store 	decision_no[2] 	132919
scalar abilene_cost_network.node[2].content_store 	decision_ratio[2] 	0.0098037024621
scalar abilene_cost_network.node[3].core_layer 	interests[3] 	249704
scalar abilene_cost_network.node[3].core_layer 	data[3] 	179011
scalar abilene_cost_network.node[3].content_store 	p_hit[3] 	0.28291096658444
scalar abilene_cost_network.node[3].content_store 	hits[3] 	70644
scalar abilene_cost_network.node[3].content_store 	misses[3] 	179060
scalar abilene_cost_network.node[3].content_store 	decision_yes[3] 	1817
scalar abilene_cost_network.node[3].content_store 	decision_no[3] 	177194
scalar abilene_cost_network.node[3].content_store 	decision_ratio[3] 	0.010150214232645
scalar abilene_cost_network.node[4].core_layer 	interests[4] 	71574
scalar abilene_cost_network.node[4].core_layer 	data[4] 	62556
scalar abilene_cost_network.node[4].content_store 	p_hit[4] 	0.12599547321653
scalar abilene_cost_network.node[4].content_store 	hits[4] 	9018
scalar abilene_cost_network.node[4].content_store 	misses[4] 	62556
scalar abilene_cost_network.node[4].content_store 	decision_yes[4] 	615
scalar abilene_cost_network.node[4].content_store 	decision_no[4] 	61941
scalar abilene_cost_network.node[4].content_store 	decision_ratio[4] 	0.0098311912526376
scalar abilene_cost_network.node[5].core_layer 	interests[5] 	94682
scalar abilene_cost_network.node[5].core_layer 	repo_load[5] 	86382
scalar abilene_cost_network.node[5].core_layer 	data[5] 	0
scalar abilene_cost_network.node[5].content_store 	p_hit[5] 	0.087661857586447
scalar abilene_cost_network.node[5].content_store 	hits[5] 	8300
scalar abilene_cost_network.node[5].content_store 	misses[5] 	86382
scalar abilene_cost_network.node[5].content_store 	decision_yes[5] 	833
scalar abilene_cost_network.node[5].content_store 	decision_no[5] 	85549
scalar abilene_cost_network.node[5].content_store 	decision_ratio[5] 	0.0096432127063509
scalar abilene_cost_network.node[6].core_layer 	interests[6] 	37269
scalar abilene_cost_network.node[6].core_layer 	data[6] 	32126
scalar abilene_cost_network.node[6].content_store 	p_hit[6] 	0.13799672650192
scalar abilene_cost_network.node[6].content_store 	hits[6] 	5143
scalar abilene_cost_network.node[6].content_store 	misses[6] 	32126
scalar abilene_cost_network.node[6].content_store 	decision_yes[6] 	336
scalar abilene_cost_network.node[6].content_store 	decision_no[6] 	31790
scalar abilene_cost_network.node[6].content_store 	decision_ratio[6] 	0.01045881840254
scalar abilene_cost_network.node[7].core_layer 	interests[7] 	179996
scalar abilene_cost_network.node[7].core_layer 	data[7] 	109959
scalar abilene_cost_network.node[7].content_store 	p_hit[7] 	0.38891419809329
scalar abilene_cost_network.node[7].content_store 	hits[7] 	70003
scalar abilene_cost_network.node[7].content_store 	misses[7] 	109993
scalar abilene_cost_network.node[7].content_store 	decision_yes[7] 	1073
scalar abilene_cost_network.node[7].content_store 	decision_no[7] 	108886
scalar abilene_cost_network.node[7].content_store 	decision_ratio[7] 	0.009758182595331
scalar abilene_cost_network.node[8].core_layer 	interests[8] 	71596
scalar abilene_cost_network.node[8].core_layer 	data[8] 	61334
scalar abilene_cost_network.node[8].content_store 	p_hit[8] 	0.14323425889715
scalar abilene_cost_network.node[8].content_store 	hits[8] 	10255
scalar abilene_cost_network.node[8].content_store 	misses[8] 	61341
scalar abilene_cost_network.node[8].content_store 	decision_yes[8] 	671
scalar abilene_cost_network.node[8].content_store 	decision_no[8] 	60663
scalar abilene_cost_network.node[8].content_store 	decision_ratio[8] 	0.01094009847719
scalar abilene_cost_network.node[9].core_layer 	interests[9] 	92814
scalar abilene_cost_network.node[9].core_layer 	repo_load[9] 	84909
scalar abilene_cost_network.node[9].core_layer 	data[9] 	0
scalar abilene_cost_network.node[9].content_store 	p_hit[9] 	0.085170340681363
scalar abilene_cost_network.node[9].content_store 	hits[9] 	7905
scalar abilene_cost_network.node[9].content_store 	misses[9] 	84909
scalar abilene_cost_network.node[9].content_store 	decision_yes[9] 	855
scalar abilene_cost_network.node[9].content_store 	decision_no[9] 	84054
scalar abilene_cost_network.node[9].content_store 	decision_ratio[9] 	0.010069603928912
scalar abilene_cost_network.node[10].core_layer 	interests[10] 	35676
scalar abilene_cost_network.node[10].core_layer 	data[10] 	31480
scalar abilene_cost_network.node[10].content_store 	p_hit[10] 	0.11761408229622
scalar abilene_cost_network.node[10].content_store 	hits[10] 	4196
scalar abilene_cost_network.node[10].content_store 	misses[10] 	31480
scalar abilene_cost_network.node[10].content_store 	decision_yes[10] 	328
scalar abilene_cost_network.node[10].content_store 	decision_no[10] 	31152
scalar abilene_cost_network.node[10].content_store 	decision_ratio[10] 	0.010419313850064
scalar abilene_cost_network.client[0] 	hdistance[0] 	2.0169857253513
scalar abilene_cost_network.client[0] 	downloads[0] 	180740
scalar abilene_cost_network.client[0] 	avg_time[0] 	0.010297435144
scalar abilene_cost_network.client[0] 	interests_sent[0] 	180778
scalar abilene_cost_network.client[3] 	hdistance[3] 	1.8371051312051
scalar abilene_cost_network.client[3] 	downloads[3] 	179490
scalar abilene_cost_network.client[3] 	avg_time[3] 	0.008676069015
scalar abilene_cost_network.client[3] 	interests_sent[3] 	179521
scalar abilene_cost_network.client[7] 	hdistance[7] 	1.8132050099465
scalar abilene_cost_network.client[7] 	downloads[7] 	179962
scalar abilene_cost_network.client[7] 	avg_time[7] 	0.008582189007
scalar abilene_cost_network.client[7] 	interests_sent[7] 	179996
