version 2
run General-3-20140904-11:12:00-24376
attr D fix0.01
attr F spr
attr R lru
attr a 1
attr configname General
attr csize 1e3
attr ctlg 1e5
attr datetime 20140904-11:12:00
attr experiment General
attr inifile omnetpp.ini
attr iterationvars "$net=abilene_cost, $rep=1, $priceratiovalue=10, $weights=0.333_0.333_0.334, $lambda=100, $a=1, $ctlg=1e5, $F=spr, $ttl=10, $D=fix0.01, $xi=1, $R=lru, $csize=1e3, $pricebits=0, $window=60, $variance=0.05, $mytime=1800"
attr iterationvars2 "$net=abilene_cost, $rep=1, $priceratiovalue=10, $weights=0.333_0.333_0.334, $lambda=100, $a=1, $ctlg=1e5, $F=spr, $ttl=10, $D=fix0.01, $xi=1, $R=lru, $csize=1e3, $pricebits=0, $window=60, $variance=0.05, $mytime=1800, $repetition=0"
attr lambda 100
attr measurement "$net=abilene_cost, $rep=1, $priceratiovalue=10, $weights=0.333_0.333_0.334, $lambda=100, $a=1, $ctlg=1e5, $F=spr, $ttl=10, $D=fix0.01, $xi=1, $R=lru, $csize=1e3, $pricebits=0, $window=60, $variance=0.05, $mytime=1800"
attr mytime 1800
attr net abilene_cost
attr network networks.${net=abilene_cost}_network
attr pricebits 0
attr priceratiovalue 10
attr processid 24376
attr rep 1
attr repetition 0
attr replication #0
attr resultdir results
attr runnumber 3
attr seedset 1
attr ttl 10
attr variance 0.05
attr weights 0.333_0.333_0.334
attr window 60
attr xi 1

scalar . 	a 	1
scalar . 	csize 	1e3
scalar . 	ctlg 	1e5
scalar . 	lambda 	100
scalar . 	mytime 	1800
scalar . 	pricebits 	0
scalar . 	priceratiovalue 	10
scalar . 	rep 	1
scalar . 	ttl 	10
scalar . 	variance 	0.05
scalar . 	window 	60
scalar . 	xi 	1
scalar abilene_cost_network.content_distribution 	repo-0 	10
scalar abilene_cost_network.content_distribution 	repo-1 	7
scalar abilene_cost_network.content_distribution 	repo-2 	5
scalar abilene_cost_network.content_distribution 	client-0 	8
scalar abilene_cost_network.content_distribution 	client-1 	7
scalar abilene_cost_network.content_distribution 	client-2 	2
scalar abilene_cost_network.content_distribution 	repo-0_card 	33397
scalar abilene_cost_network.content_distribution 	repo-0_price 	0
scalar abilene_cost_network.content_distribution 	repo-1_card 	33041
scalar abilene_cost_network.content_distribution 	repo-1_price 	10
scalar abilene_cost_network.content_distribution 	repo-2_card 	33562
scalar abilene_cost_network.content_distribution 	repo-2_price 	1
scalar abilene_cost_network.statistics 	repo_popularity[0] 	0.36106327575467
scalar abilene_cost_network.statistics 	repo_popularity[1] 	0.3490006524958
scalar abilene_cost_network.statistics 	repo_popularity[2] 	0.28993607174955
scalar abilene_cost_network.statistics 	stabilization_time 	36060
scalar abilene_cost_network.statistics 	p_hit 	0.23060184350326
scalar abilene_cost_network.statistics 	interests 	105362.63636364
scalar abilene_cost_network.statistics 	data 	56285.545454545
scalar abilene_cost_network.statistics 	hdistance 	1.6515881186974
scalar abilene_cost_network.statistics 	avg_time 	0.007392878471
scalar abilene_cost_network.statistics 	downloads 	539781
scalar abilene_cost_network.statistics 	total_cost 	1097872
scalar abilene_cost_network.statistics 	total_replicas 	100000
scalar abilene_cost_network.statistics 	inner_hit 	0.49520268405149
scalar abilene_cost_network.statistics 	interests_sent 	539850
scalar abilene_cost_network.node[0].core_layer 	interests[0] 	0
scalar abilene_cost_network.node[0].core_layer 	data[0] 	0
scalar abilene_cost_network.node[0].core_layer 	repo_int[0] 	272480
scalar abilene_cost_network.node[0].content_store 	p_hit[0] 	-nan
scalar abilene_cost_network.node[0].content_store 	hits[0] 	0
scalar abilene_cost_network.node[0].content_store 	misses[0] 	0
scalar abilene_cost_network.node[0].content_store 	decision_yes[0] 	0
scalar abilene_cost_network.node[0].content_store 	decision_no[0] 	0
scalar abilene_cost_network.node[0].content_store 	decision_ratio[0] 	0
scalar abilene_cost_network.node[1].core_layer 	interests[1] 	36592
scalar abilene_cost_network.node[1].core_layer 	data[1] 	31452
scalar abilene_cost_network.node[1].content_store 	p_hit[1] 	0.14044053344993
scalar abilene_cost_network.node[1].content_store 	hits[1] 	5139
scalar abilene_cost_network.node[1].content_store 	misses[1] 	31453
scalar abilene_cost_network.node[1].content_store 	decision_yes[1] 	313
scalar abilene_cost_network.node[1].content_store 	decision_no[1] 	31139
scalar abilene_cost_network.node[1].content_store 	decision_ratio[1] 	0.0099516723896732
scalar abilene_cost_network.node[2].core_layer 	interests[2] 	180760
scalar abilene_cost_network.node[2].core_layer 	data[2] 	109510
scalar abilene_cost_network.node[2].content_store 	p_hit[2] 	0.39405288780704
scalar abilene_cost_network.node[2].content_store 	hits[2] 	71229
scalar abilene_cost_network.node[2].content_store 	misses[2] 	109531
scalar abilene_cost_network.node[2].content_store 	decision_yes[2] 	1125
scalar abilene_cost_network.node[2].content_store 	decision_no[2] 	108385
scalar abilene_cost_network.node[2].content_store 	decision_ratio[2] 	0.01027303442608
scalar abilene_cost_network.node[3].core_layer 	interests[3] 	72918
scalar abilene_cost_network.node[3].core_layer 	data[3] 	66480
scalar abilene_cost_network.node[3].content_store 	p_hit[3] 	0.088290956965358
scalar abilene_cost_network.node[3].content_store 	hits[3] 	6438
scalar abilene_cost_network.node[3].content_store 	misses[3] 	66480
scalar abilene_cost_network.node[3].content_store 	decision_yes[3] 	711
scalar abilene_cost_network.node[3].content_store 	decision_no[3] 	65769
scalar abilene_cost_network.node[3].content_store 	decision_ratio[3] 	0.010694945848375
scalar abilene_cost_network.node[4].core_layer 	interests[4] 	34106
scalar abilene_cost_network.node[4].core_layer 	data[4] 	30806
scalar abilene_cost_network.node[4].content_store 	p_hit[4] 	0.096757168826599
scalar abilene_cost_network.node[4].content_store 	hits[4] 	3300
scalar abilene_cost_network.node[4].content_store 	misses[4] 	30806
scalar abilene_cost_network.node[4].content_store 	decision_yes[4] 	314
scalar abilene_cost_network.node[4].content_store 	decision_no[4] 	30492
scalar abilene_cost_network.node[4].content_store 	decision_ratio[4] 	0.010192819580601
scalar abilene_cost_network.node[5].core_layer 	interests[5] 	93953
scalar abilene_cost_network.node[5].core_layer 	repo_load[5] 	86432
scalar abilene_cost_network.node[5].core_layer 	data[5] 	0
scalar abilene_cost_network.node[5].content_store 	p_hit[5] 	0.080050663629687
scalar abilene_cost_network.node[5].content_store 	hits[5] 	7521
scalar abilene_cost_network.node[5].content_store 	misses[5] 	86432
scalar abilene_cost_network.node[5].content_store 	decision_yes[5] 	852
scalar abilene_cost_network.node[5].content_store 	decision_no[5] 	85580
scalar abilene_cost_network.node[5].content_store 	decision_ratio[5] 	0.009857460199926
scalar abilene_cost_network.node[6].core_layer 	interests[6] 	72467
scalar abilene_cost_network.node[6].core_layer 	data[6] 	63147
scalar abilene_cost_network.node[6].content_store 	p_hit[6] 	0.12861026398223
scalar abilene_cost_network.node[6].content_store 	hits[6] 	9320
scalar abilene_cost_network.node[6].content_store 	misses[6] 	63147
scalar abilene_cost_network.node[6].content_store 	decision_yes[6] 	641
scalar abilene_cost_network.node[6].content_store 	decision_no[6] 	62506
scalar abilene_cost_network.node[6].content_store 	decision_ratio[6] 	0.01015091769997
scalar abilene_cost_network.node[7].core_layer 	interests[7] 	287067
scalar abilene_cost_network.node[7].core_layer 	repo_load[7] 	101144
scalar abilene_cost_network.node[7].core_layer 	data[7] 	112176
scalar abilene_cost_network.node[7].content_store 	p_hit[7] 	0.25681112771583
scalar abilene_cost_network.node[7].content_store 	hits[7] 	73722
scalar abilene_cost_network.node[7].content_store 	misses[7] 	213345
scalar abilene_cost_network.node[7].content_store 	decision_yes[7] 	2148
scalar abilene_cost_network.node[7].content_store 	decision_no[7] 	211172
scalar abilene_cost_network.node[7].content_store 	decision_ratio[7] 	0.010069379336209
scalar abilene_cost_network.node[8].core_layer 	interests[8] 	219304
scalar abilene_cost_network.node[8].core_layer 	data[8] 	144915
scalar abilene_cost_network.node[8].content_store 	p_hit[8] 	0.33894958596286
scalar abilene_cost_network.node[8].content_store 	hits[8] 	74333
scalar abilene_cost_network.node[8].content_store 	misses[8] 	144971
scalar abilene_cost_network.node[8].content_store 	decision_yes[8] 	1437
scalar abilene_cost_network.node[8].content_store 	decision_no[8] 	143478
scalar abilene_cost_network.node[8].content_store 	decision_ratio[8] 	0.0099161577476452
scalar abilene_cost_network.node[9].core_layer 	interests[9] 	69714
scalar abilene_cost_network.node[9].core_layer 	data[9] 	60655
scalar abilene_cost_network.node[9].content_store 	p_hit[9] 	0.12994520469346
scalar abilene_cost_network.node[9].content_store 	hits[9] 	9059
scalar abilene_cost_network.node[9].content_store 	misses[9] 	60655
scalar abilene_cost_network.node[9].content_store 	decision_yes[9] 	568
scalar abilene_cost_network.node[9].content_store 	decision_no[9] 	60087
scalar abilene_cost_network.node[9].content_store 	decision_ratio[9] 	0.0093644382161405
scalar abilene_cost_network.node[10].core_layer 	interests[10] 	92108
scalar abilene_cost_network.node[10].core_layer 	repo_load[10] 	84904
scalar abilene_cost_network.node[10].core_layer 	data[10] 	0
scalar abilene_cost_network.node[10].content_store 	p_hit[10] 	0.078212533113302
scalar abilene_cost_network.node[10].content_store 	hits[10] 	7204
scalar abilene_cost_network.node[10].content_store 	misses[10] 	84904
scalar abilene_cost_network.node[10].content_store 	decision_yes[10] 	820
scalar abilene_cost_network.node[10].content_store 	decision_no[10] 	84084
scalar abilene_cost_network.node[10].content_store 	decision_ratio[10] 	0.0096579666446811
scalar abilene_cost_network.client[2] 	hdistance[2] 	1.8062676013478
scalar abilene_cost_network.client[2] 	downloads[2] 	180739
scalar abilene_cost_network.client[2] 	avg_time[2] 	0.007376699801
scalar abilene_cost_network.client[2] 	interests_sent[2] 	180760
scalar abilene_cost_network.client[7] 	hdistance[7] 	1.4845496383958
scalar abilene_cost_network.client[7] 	downloads[7] 	179478
scalar abilene_cost_network.client[7] 	avg_time[7] 	0.006663281246
scalar abilene_cost_network.client[7] 	interests_sent[7] 	179494
scalar abilene_cost_network.client[8] 	hdistance[8] 	1.6639471163485
scalar abilene_cost_network.client[8] 	downloads[8] 	179564
scalar abilene_cost_network.client[8] 	avg_time[8] 	0.008138654368
scalar abilene_cost_network.client[8] 	interests_sent[8] 	179596
