version 2
run General-3-20140904-15:45:49-30350
attr D fix0.01
attr F spr
attr R lru
attr a 1
attr configname General
attr csize 1e3
attr ctlg 1e5
attr datetime 20140904-15:45:49
attr experiment General
attr inifile omnetpp.ini
attr iterationvars "$net=abilene_cost, $rep=19, $priceratiovalue=10, $weights=0.333_0.333_0.334, $lambda=100, $a=1, $ctlg=1e5, $F=spr, $ttl=10, $D=fix0.01, $xi=1, $R=lru, $csize=1e3, $pricebits=0, $window=60, $variance=0.05, $mytime=1800"
attr iterationvars2 "$net=abilene_cost, $rep=19, $priceratiovalue=10, $weights=0.333_0.333_0.334, $lambda=100, $a=1, $ctlg=1e5, $F=spr, $ttl=10, $D=fix0.01, $xi=1, $R=lru, $csize=1e3, $pricebits=0, $window=60, $variance=0.05, $mytime=1800, $repetition=0"
attr lambda 100
attr measurement "$net=abilene_cost, $rep=19, $priceratiovalue=10, $weights=0.333_0.333_0.334, $lambda=100, $a=1, $ctlg=1e5, $F=spr, $ttl=10, $D=fix0.01, $xi=1, $R=lru, $csize=1e3, $pricebits=0, $window=60, $variance=0.05, $mytime=1800"
attr mytime 1800
attr net abilene_cost
attr network networks.${net=abilene_cost}_network
attr pricebits 0
attr priceratiovalue 10
attr processid 30350
attr rep 19
attr repetition 0
attr replication #0
attr resultdir results
attr runnumber 3
attr seedset 19
attr ttl 10
attr variance 0.05
attr weights 0.333_0.333_0.334
attr window 60
attr xi 1

scalar . 	a 	1
scalar . 	csize 	1e3
scalar . 	ctlg 	1e5
scalar . 	lambda 	100
scalar . 	mytime 	1800
scalar . 	pricebits 	0
scalar . 	priceratiovalue 	10
scalar . 	rep 	19
scalar . 	ttl 	10
scalar . 	variance 	0.05
scalar . 	window 	60
scalar . 	xi 	1
scalar abilene_cost_network.content_distribution 	repo-0 	3
scalar abilene_cost_network.content_distribution 	repo-1 	0
scalar abilene_cost_network.content_distribution 	repo-2 	7
scalar abilene_cost_network.content_distribution 	client-0 	5
scalar abilene_cost_network.content_distribution 	client-1 	3
scalar abilene_cost_network.content_distribution 	client-2 	4
scalar abilene_cost_network.content_distribution 	repo-0_card 	33373
scalar abilene_cost_network.content_distribution 	repo-0_price 	0
scalar abilene_cost_network.content_distribution 	repo-1_card 	33387
scalar abilene_cost_network.content_distribution 	repo-1_price 	10
scalar abilene_cost_network.content_distribution 	repo-2_card 	33240
scalar abilene_cost_network.content_distribution 	repo-2_price 	1
scalar abilene_cost_network.statistics 	repo_popularity[0] 	0.31878344310933
scalar abilene_cost_network.statistics 	repo_popularity[1] 	0.40125644479525
scalar abilene_cost_network.statistics 	repo_popularity[2] 	0.27996011209543
scalar abilene_cost_network.statistics 	stabilization_time 	36060
scalar abilene_cost_network.statistics 	p_hit 	0.21560011885244
scalar abilene_cost_network.statistics 	interests 	111062.09090909
scalar abilene_cost_network.statistics 	data 	61921.363636364
scalar abilene_cost_network.statistics 	hdistance 	1.7733427562403
scalar abilene_cost_network.statistics 	avg_time 	0.006479227802
scalar abilene_cost_network.statistics 	downloads 	540488
scalar abilene_cost_network.statistics 	total_cost 	912143
scalar abilene_cost_network.statistics 	total_replicas 	100000
scalar abilene_cost_network.statistics 	inner_hit 	0.487431728364
scalar abilene_cost_network.statistics 	interests_sent 	540543
scalar abilene_cost_network.node[0].core_layer 	interests[0] 	86606
scalar abilene_cost_network.node[0].core_layer 	repo_load[0] 	82284
scalar abilene_cost_network.node[0].core_layer 	data[0] 	0
scalar abilene_cost_network.node[0].core_layer 	repo_int[0] 	277037
scalar abilene_cost_network.node[0].content_store 	p_hit[0] 	0.049904163683809
scalar abilene_cost_network.node[0].content_store 	hits[0] 	4322
scalar abilene_cost_network.node[0].content_store 	misses[0] 	82284
scalar abilene_cost_network.node[0].content_store 	decision_yes[0] 	826
scalar abilene_cost_network.node[0].content_store 	decision_no[0] 	81458
scalar abilene_cost_network.node[0].content_store 	decision_ratio[0] 	0.010038403577852
scalar abilene_cost_network.node[1].core_layer 	interests[1] 	93459
scalar abilene_cost_network.node[1].core_layer 	data[1] 	86606
scalar abilene_cost_network.node[1].content_store 	p_hit[1] 	0.073326271413133
scalar abilene_cost_network.node[1].content_store 	hits[1] 	6853
scalar abilene_cost_network.node[1].content_store 	misses[1] 	86606
scalar abilene_cost_network.node[1].content_store 	decision_yes[1] 	921
scalar abilene_cost_network.node[1].content_store 	decision_no[1] 	85685
scalar abilene_cost_network.node[1].content_store 	decision_ratio[1] 	0.010634367133917
scalar abilene_cost_network.node[2].core_layer 	interests[2] 	107131
scalar abilene_cost_network.node[2].core_layer 	data[2] 	93458
scalar abilene_cost_network.node[2].content_store 	p_hit[2] 	0.12761945655319
scalar abilene_cost_network.node[2].content_store 	hits[2] 	13672
scalar abilene_cost_network.node[2].content_store 	misses[2] 	93459
scalar abilene_cost_network.node[2].content_store 	decision_yes[2] 	930
scalar abilene_cost_network.node[2].content_store 	decision_no[2] 	92528
scalar abilene_cost_network.node[2].content_store 	decision_ratio[2] 	0.0099509940294036
scalar abilene_cost_network.node[3].core_layer 	interests[3] 	360883
scalar abilene_cost_network.node[3].core_layer 	repo_load[3] 	105450
scalar abilene_cost_network.node[3].core_layer 	data[3] 	179914
scalar abilene_cost_network.node[3].content_store 	p_hit[3] 	0.2091176364639
scalar abilene_cost_network.node[3].content_store 	hits[3] 	75467
scalar abilene_cost_network.node[3].content_store 	misses[3] 	285416
scalar abilene_cost_network.node[3].content_store 	decision_yes[3] 	2896
scalar abilene_cost_network.node[3].content_store 	decision_no[3] 	282468
scalar abilene_cost_network.node[3].content_store 	decision_ratio[3] 	0.01014844198988
scalar abilene_cost_network.node[4].core_layer 	interests[4] 	253711
scalar abilene_cost_network.node[4].core_layer 	data[4] 	180736
scalar abilene_cost_network.node[4].content_store 	p_hit[4] 	0.28748063741816
scalar abilene_cost_network.node[4].content_store 	hits[4] 	72937
scalar abilene_cost_network.node[4].content_store 	misses[4] 	180774
scalar abilene_cost_network.node[4].content_store 	decision_yes[4] 	1815
scalar abilene_cost_network.node[4].content_store 	decision_no[4] 	178921
scalar abilene_cost_network.node[4].content_store 	decision_ratio[4] 	0.010042271600567
scalar abilene_cost_network.node[5].core_layer 	interests[5] 	179747
scalar abilene_cost_network.node[5].core_layer 	data[5] 	109443
scalar abilene_cost_network.node[5].content_store 	p_hit[5] 	0.39098844486973
scalar abilene_cost_network.node[5].content_store 	hits[5] 	70279
scalar abilene_cost_network.node[5].content_store 	misses[5] 	109468
scalar abilene_cost_network.node[5].content_store 	decision_yes[5] 	1079
scalar abilene_cost_network.node[5].content_store 	decision_no[5] 	108364
scalar abilene_cost_network.node[5].content_store 	decision_ratio[5] 	0.0098590133676891
scalar abilene_cost_network.node[6].core_layer 	interests[6] 	36384
scalar abilene_cost_network.node[6].core_layer 	data[6] 	30978
scalar abilene_cost_network.node[6].content_store 	p_hit[6] 	0.14858179419525
scalar abilene_cost_network.node[6].content_store 	hits[6] 	5406
scalar abilene_cost_network.node[6].content_store 	misses[6] 	30978
scalar abilene_cost_network.node[6].content_store 	decision_yes[6] 	331
scalar abilene_cost_network.node[6].content_store 	decision_no[6] 	30647
scalar abilene_cost_network.node[6].content_store 	decision_ratio[6] 	0.010685002259668
scalar abilene_cost_network.node[7].core_layer 	interests[7] 	103762
scalar abilene_cost_network.node[7].core_layer 	repo_load[7] 	89303
scalar abilene_cost_network.node[7].core_layer 	data[7] 	0
scalar abilene_cost_network.node[7].content_store 	p_hit[7] 	0.13934773809294
scalar abilene_cost_network.node[7].content_store 	hits[7] 	14459
scalar abilene_cost_network.node[7].content_store 	misses[7] 	89303
scalar abilene_cost_network.node[7].content_store 	decision_yes[7] 	850
scalar abilene_cost_network.node[7].content_store 	decision_no[7] 	88453
scalar abilene_cost_network.node[7].content_store 	decision_ratio[7] 	0.0095181572847497
scalar abilene_cost_network.node[8].core_layer 	interests[8] 	0
scalar abilene_cost_network.node[8].core_layer 	data[8] 	0
scalar abilene_cost_network.node[8].content_store 	p_hit[8] 	-nan
scalar abilene_cost_network.node[8].content_store 	hits[8] 	0
scalar abilene_cost_network.node[8].content_store 	misses[8] 	0
scalar abilene_cost_network.node[8].content_store 	decision_yes[8] 	0
scalar abilene_cost_network.node[8].content_store 	decision_no[8] 	0
scalar abilene_cost_network.node[8].content_store 	decision_ratio[8] 	0
scalar abilene_cost_network.node[9].core_layer 	interests[9] 	0
scalar abilene_cost_network.node[9].core_layer 	data[9] 	0
scalar abilene_cost_network.node[9].content_store 	p_hit[9] 	-nan
scalar abilene_cost_network.node[9].content_store 	hits[9] 	0
scalar abilene_cost_network.node[9].content_store 	misses[9] 	0
scalar abilene_cost_network.node[9].content_store 	decision_yes[9] 	0
scalar abilene_cost_network.node[9].content_store 	decision_no[9] 	0
scalar abilene_cost_network.node[9].content_store 	decision_ratio[9] 	0
scalar abilene_cost_network.node[10].core_layer 	interests[10] 	0
scalar abilene_cost_network.node[10].core_layer 	data[10] 	0
scalar abilene_cost_network.node[10].content_store 	p_hit[10] 	-nan
scalar abilene_cost_network.node[10].content_store 	hits[10] 	0
scalar abilene_cost_network.node[10].content_store 	misses[10] 	0
scalar abilene_cost_network.node[10].content_store 	decision_yes[10] 	0
scalar abilene_cost_network.node[10].content_store 	decision_no[10] 	0
scalar abilene_cost_network.node[10].content_store 	decision_ratio[10] 	0
scalar abilene_cost_network.client[3] 	hdistance[3] 	1.3061349114266
scalar abilene_cost_network.client[3] 	downloads[3] 	180133
scalar abilene_cost_network.client[3] 	avg_time[3] 	0.004894673258
scalar abilene_cost_network.client[3] 	interests_sent[3] 	180145
scalar abilene_cost_network.client[4] 	hdistance[4] 	1.8529726019055
scalar abilene_cost_network.client[4] 	downloads[4] 	180633
scalar abilene_cost_network.client[4] 	avg_time[4] 	0.005714482621
scalar abilene_cost_network.client[4] 	interests_sent[4] 	180651
scalar abilene_cost_network.client[5] 	hdistance[5] 	2.1609207553889
scalar abilene_cost_network.client[5] 	downloads[5] 	179722
scalar abilene_cost_network.client[5] 	avg_time[5] 	0.008828527527
scalar abilene_cost_network.client[5] 	interests_sent[5] 	179747
