version 2
run General-7-20140904-11:38:42-24194
attr D fix0.01
attr F spr
attr R lru
attr a 1
attr configname General
attr csize 1e3
attr ctlg 1e5
attr datetime 20140904-11:38:42
attr experiment General
attr inifile omnetpp.ini
attr iterationvars "$net=abilene_cost, $rep=6, $priceratiovalue=10, $weights=0.333_0.333_0.334, $lambda=100, $a=1, $ctlg=1e5, $F=spr, $ttl=10, $D=fix0.01, $xi=1, $R=lru, $csize=1e3, $pricebits=0, $window=60, $variance=0.05, $mytime=1800"
attr iterationvars2 "$net=abilene_cost, $rep=6, $priceratiovalue=10, $weights=0.333_0.333_0.334, $lambda=100, $a=1, $ctlg=1e5, $F=spr, $ttl=10, $D=fix0.01, $xi=1, $R=lru, $csize=1e3, $pricebits=0, $window=60, $variance=0.05, $mytime=1800, $repetition=0"
attr lambda 100
attr measurement "$net=abilene_cost, $rep=6, $priceratiovalue=10, $weights=0.333_0.333_0.334, $lambda=100, $a=1, $ctlg=1e5, $F=spr, $ttl=10, $D=fix0.01, $xi=1, $R=lru, $csize=1e3, $pricebits=0, $window=60, $variance=0.05, $mytime=1800"
attr mytime 1800
attr net abilene_cost
attr network networks.${net=abilene_cost}_network
attr pricebits 0
attr priceratiovalue 10
attr processid 24194
attr rep 6
attr repetition 0
attr replication #0
attr resultdir results
attr runnumber 7
attr seedset 6
attr ttl 10
attr variance 0.05
attr weights 0.333_0.333_0.334
attr window 60
attr xi 1

scalar . 	a 	1
scalar . 	csize 	1e3
scalar . 	ctlg 	1e5
scalar . 	lambda 	100
scalar . 	mytime 	1800
scalar . 	pricebits 	0
scalar . 	priceratiovalue 	10
scalar . 	rep 	6
scalar . 	ttl 	10
scalar . 	variance 	0.05
scalar . 	window 	60
scalar . 	xi 	1
scalar abilene_cost_network.content_distribution 	repo-0 	5
scalar abilene_cost_network.content_distribution 	repo-1 	2
scalar abilene_cost_network.content_distribution 	repo-2 	8
scalar abilene_cost_network.content_distribution 	client-0 	4
scalar abilene_cost_network.content_distribution 	client-1 	10
scalar abilene_cost_network.content_distribution 	client-2 	2
scalar abilene_cost_network.content_distribution 	repo-0_card 	33434
scalar abilene_cost_network.content_distribution 	repo-0_price 	1
scalar abilene_cost_network.content_distribution 	repo-1_card 	33143
scalar abilene_cost_network.content_distribution 	repo-1_price 	10
scalar abilene_cost_network.content_distribution 	repo-2_card 	33423
scalar abilene_cost_network.content_distribution 	repo-2_price 	0
scalar abilene_cost_network.statistics 	repo_popularity[0] 	0.41241466788296
scalar abilene_cost_network.statistics 	repo_popularity[1] 	0.27822505478955
scalar abilene_cost_network.statistics 	repo_popularity[2] 	0.3093602773275
scalar abilene_cost_network.statistics 	stabilization_time 	36060
scalar abilene_cost_network.statistics 	p_hit 	0.21376370381461
scalar abilene_cost_network.statistics 	interests 	109292.72727273
scalar abilene_cost_network.statistics 	data 	60199.454545455
scalar abilene_cost_network.statistics 	hdistance 	1.7509767996709
scalar abilene_cost_network.statistics 	avg_time 	0.007226230302
scalar abilene_cost_network.statistics 	downloads 	539959
scalar abilene_cost_network.statistics 	total_cost 	1105803
scalar abilene_cost_network.statistics 	total_replicas 	100000
scalar abilene_cost_network.statistics 	inner_hit 	0.47598984367332
scalar abilene_cost_network.statistics 	interests_sent 	540026
scalar abilene_cost_network.node[0].core_layer 	interests[0] 	0
scalar abilene_cost_network.node[0].core_layer 	data[0] 	0
scalar abilene_cost_network.node[0].core_layer 	repo_int[0] 	282944
scalar abilene_cost_network.node[0].content_store 	p_hit[0] 	-nan
scalar abilene_cost_network.node[0].content_store 	hits[0] 	0
scalar abilene_cost_network.node[0].content_store 	misses[0] 	0
scalar abilene_cost_network.node[0].content_store 	decision_yes[0] 	0
scalar abilene_cost_network.node[0].content_store 	decision_no[0] 	0
scalar abilene_cost_network.node[0].content_store 	decision_ratio[0] 	0
scalar abilene_cost_network.node[1].core_layer 	interests[1] 	72253
scalar abilene_cost_network.node[1].core_layer 	data[1] 	66356
scalar abilene_cost_network.node[1].content_store 	p_hit[1] 	0.081602148007695
scalar abilene_cost_network.node[1].content_store 	hits[1] 	5896
scalar abilene_cost_network.node[1].content_store 	misses[1] 	66357
scalar abilene_cost_network.node[1].content_store 	decision_yes[1] 	717
scalar abilene_cost_network.node[1].content_store 	decision_no[1] 	65639
scalar abilene_cost_network.node[1].content_store 	decision_ratio[1] 	0.010805352944722
scalar abilene_cost_network.node[2].core_layer 	interests[2] 	317048
scalar abilene_cost_network.node[2].core_layer 	repo_load[2] 	101518
scalar abilene_cost_network.node[2].core_layer 	data[2] 	143640
scalar abilene_cost_network.node[2].content_store 	p_hit[2] 	0.22665968559966
scalar abilene_cost_network.node[2].content_store 	hits[2] 	71862
scalar abilene_cost_network.node[2].content_store 	misses[2] 	245186
scalar abilene_cost_network.node[2].content_store 	decision_yes[2] 	2453
scalar abilene_cost_network.node[2].content_store 	decision_no[2] 	242705
scalar abilene_cost_network.node[2].content_store 	decision_ratio[2] 	0.010005792183
scalar abilene_cost_network.node[3].core_layer 	interests[3] 	147412
scalar abilene_cost_network.node[3].core_layer 	data[3] 	137099
scalar abilene_cost_network.node[3].content_store 	p_hit[3] 	0.069960383143842
scalar abilene_cost_network.node[3].content_store 	hits[3] 	10313
scalar abilene_cost_network.node[3].content_store 	misses[3] 	137099
scalar abilene_cost_network.node[3].content_store 	decision_yes[3] 	1340
scalar abilene_cost_network.node[3].content_store 	decision_no[3] 	135759
scalar abilene_cost_network.node[3].content_store 	decision_ratio[3] 	0.0097739589639604
scalar abilene_cost_network.node[4].core_layer 	interests[4] 	246702
scalar abilene_cost_network.node[4].core_layer 	data[4] 	175590
scalar abilene_cost_network.node[4].content_store 	p_hit[4] 	0.28815737205211
scalar abilene_cost_network.node[4].content_store 	hits[4] 	71089
scalar abilene_cost_network.node[4].content_store 	misses[4] 	175613
scalar abilene_cost_network.node[4].content_store 	decision_yes[4] 	1722
scalar abilene_cost_network.node[4].content_store 	decision_no[4] 	173868
scalar abilene_cost_network.node[4].content_store 	decision_ratio[4] 	0.0098069366137024
scalar abilene_cost_network.node[5].core_layer 	interests[5] 	99508
scalar abilene_cost_network.node[5].core_layer 	repo_load[5] 	90623
scalar abilene_cost_network.node[5].core_layer 	data[5] 	0
scalar abilene_cost_network.node[5].content_store 	p_hit[5] 	0.089289303372593
scalar abilene_cost_network.node[5].content_store 	hits[5] 	8885
scalar abilene_cost_network.node[5].content_store 	misses[5] 	90623
scalar abilene_cost_network.node[5].content_store 	decision_yes[5] 	944
scalar abilene_cost_network.node[5].content_store 	decision_no[5] 	89679
scalar abilene_cost_network.node[5].content_store 	decision_ratio[5] 	0.010416781611732
scalar abilene_cost_network.node[6].core_layer 	interests[6] 	0
scalar abilene_cost_network.node[6].core_layer 	data[6] 	0
scalar abilene_cost_network.node[6].content_store 	p_hit[6] 	-nan
scalar abilene_cost_network.node[6].content_store 	hits[6] 	0
scalar abilene_cost_network.node[6].content_store 	misses[6] 	0
scalar abilene_cost_network.node[6].content_store 	decision_yes[6] 	0
scalar abilene_cost_network.node[6].content_store 	decision_no[6] 	0
scalar abilene_cost_network.node[6].content_store 	decision_ratio[6] 	0
scalar abilene_cost_network.node[7].core_layer 	interests[7] 	0
scalar abilene_cost_network.node[7].core_layer 	data[7] 	0
scalar abilene_cost_network.node[7].content_store 	p_hit[7] 	-nan
scalar abilene_cost_network.node[7].content_store 	hits[7] 	0
scalar abilene_cost_network.node[7].content_store 	misses[7] 	0
scalar abilene_cost_network.node[7].content_store 	decision_yes[7] 	0
scalar abilene_cost_network.node[7].content_store 	decision_no[7] 	0
scalar abilene_cost_network.node[7].content_store 	decision_ratio[7] 	0
scalar abilene_cost_network.node[8].core_layer 	interests[8] 	102938
scalar abilene_cost_network.node[8].core_layer 	repo_load[8] 	90803
scalar abilene_cost_network.node[8].core_layer 	data[8] 	0
scalar abilene_cost_network.node[8].content_store 	p_hit[8] 	0.11788649478327
scalar abilene_cost_network.node[8].content_store 	hits[8] 	12135
scalar abilene_cost_network.node[8].content_store 	misses[8] 	90803
scalar abilene_cost_network.node[8].content_store 	decision_yes[8] 	907
scalar abilene_cost_network.node[8].content_store 	decision_no[8] 	89896
scalar abilene_cost_network.node[8].content_store 	decision_ratio[8] 	0.0099886567624418
scalar abilene_cost_network.node[9].core_layer 	interests[9] 	36627
scalar abilene_cost_network.node[9].core_layer 	data[9] 	30629
scalar abilene_cost_network.node[9].content_store 	p_hit[9] 	0.16378627788244
scalar abilene_cost_network.node[9].content_store 	hits[9] 	5999
scalar abilene_cost_network.node[9].content_store 	misses[9] 	30628
scalar abilene_cost_network.node[9].content_store 	decision_yes[9] 	325
scalar abilene_cost_network.node[9].content_store 	decision_no[9] 	30304
scalar abilene_cost_network.node[9].content_store 	decision_ratio[9] 	0.010610858989846
scalar abilene_cost_network.node[10].core_layer 	interests[10] 	179732
scalar abilene_cost_network.node[10].core_layer 	data[10] 	108880
scalar abilene_cost_network.node[10].content_store 	p_hit[10] 	0.3939866022745
scalar abilene_cost_network.node[10].content_store 	hits[10] 	70812
scalar abilene_cost_network.node[10].content_store 	misses[10] 	108920
scalar abilene_cost_network.node[10].content_store 	decision_yes[10] 	1079
scalar abilene_cost_network.node[10].content_store 	decision_no[10] 	107801
scalar abilene_cost_network.node[10].content_store 	decision_ratio[10] 	0.0099099926524614
scalar abilene_cost_network.client[2] 	hdistance[2] 	1.3586496720648
scalar abilene_cost_network.client[2] 	downloads[2] 	180371
scalar abilene_cost_network.client[2] 	avg_time[2] 	0.004265703166
scalar abilene_cost_network.client[2] 	interests_sent[2] 	180384
scalar abilene_cost_network.client[4] 	hdistance[4] 	1.7348412416063
scalar abilene_cost_network.client[4] 	downloads[4] 	179896
scalar abilene_cost_network.client[4] 	avg_time[4] 	0.005496561349
scalar abilene_cost_network.client[4] 	interests_sent[4] 	179910
scalar abilene_cost_network.client[10] 	hdistance[10] 	2.1594394853416
scalar abilene_cost_network.client[10] 	downloads[10] 	179692
scalar abilene_cost_network.client[10] 	avg_time[10] 	0.011916426392
scalar abilene_cost_network.client[10] 	interests_sent[10] 	179732
