version 2
run General-3-20140904-10:48:52-27318
attr D fix0.01
attr F spr
attr R lru
attr a 1
attr configname General
attr csize 1e3
attr ctlg 1e5
attr datetime 20140904-10:48:52
attr experiment General
attr inifile omnetpp.ini
attr iterationvars "$net=abilene_cost, $rep=13, $priceratiovalue=10, $weights=0.333_0.333_0.334, $lambda=100, $a=1, $ctlg=1e5, $F=spr, $ttl=10, $D=fix0.01, $xi=1, $R=lru, $csize=1e3, $pricebits=0, $window=60, $variance=0.05, $mytime=1800"
attr iterationvars2 "$net=abilene_cost, $rep=13, $priceratiovalue=10, $weights=0.333_0.333_0.334, $lambda=100, $a=1, $ctlg=1e5, $F=spr, $ttl=10, $D=fix0.01, $xi=1, $R=lru, $csize=1e3, $pricebits=0, $window=60, $variance=0.05, $mytime=1800, $repetition=0"
attr lambda 100
attr measurement "$net=abilene_cost, $rep=13, $priceratiovalue=10, $weights=0.333_0.333_0.334, $lambda=100, $a=1, $ctlg=1e5, $F=spr, $ttl=10, $D=fix0.01, $xi=1, $R=lru, $csize=1e3, $pricebits=0, $window=60, $variance=0.05, $mytime=1800"
attr mytime 1800
attr net abilene_cost
attr network networks.${net=abilene_cost}_network
attr pricebits 0
attr priceratiovalue 10
attr processid 27318
attr rep 13
attr repetition 0
attr replication #0
attr resultdir results
attr runnumber 3
attr seedset 13
attr ttl 10
attr variance 0.05
attr weights 0.333_0.333_0.334
attr window 60
attr xi 1

scalar . 	a 	1
scalar . 	csize 	1e3
scalar . 	ctlg 	1e5
scalar . 	lambda 	100
scalar . 	mytime 	1800
scalar . 	pricebits 	0
scalar . 	priceratiovalue 	10
scalar . 	rep 	13
scalar . 	ttl 	10
scalar . 	variance 	0.05
scalar . 	window 	60
scalar . 	xi 	1
scalar abilene_cost_network.content_distribution 	repo-0 	6
scalar abilene_cost_network.content_distribution 	repo-1 	7
scalar abilene_cost_network.content_distribution 	repo-2 	5
scalar abilene_cost_network.content_distribution 	client-0 	8
scalar abilene_cost_network.content_distribution 	client-1 	2
scalar abilene_cost_network.content_distribution 	client-2 	1
scalar abilene_cost_network.content_distribution 	repo-0_card 	33148
scalar abilene_cost_network.content_distribution 	repo-0_price 	0
scalar abilene_cost_network.content_distribution 	repo-1_card 	33484
scalar abilene_cost_network.content_distribution 	repo-1_price 	1
scalar abilene_cost_network.content_distribution 	repo-2_card 	33368
scalar abilene_cost_network.content_distribution 	repo-2_price 	10
scalar abilene_cost_network.statistics 	repo_popularity[0] 	0.30980219785013
scalar abilene_cost_network.statistics 	repo_popularity[1] 	0.41260472724909
scalar abilene_cost_network.statistics 	repo_popularity[2] 	0.27759307490078
scalar abilene_cost_network.statistics 	stabilization_time 	36060
scalar abilene_cost_network.statistics 	p_hit 	0.18748582039715
scalar abilene_cost_network.statistics 	interests 	127824.45454545
scalar abilene_cost_network.statistics 	data 	78709.181818182
scalar abilene_cost_network.statistics 	hdistance 	2.1150083947216
scalar abilene_cost_network.statistics 	avg_time 	0.008488766413
scalar abilene_cost_network.statistics 	downloads 	540175
scalar abilene_cost_network.statistics 	total_cost 	958305
scalar abilene_cost_network.statistics 	total_replicas 	100000
scalar abilene_cost_network.statistics 	inner_hit 	0.48809737585042
scalar abilene_cost_network.statistics 	interests_sent 	540268
scalar abilene_cost_network.node[0].core_layer 	interests[0] 	0
scalar abilene_cost_network.node[0].core_layer 	data[0] 	0
scalar abilene_cost_network.node[0].core_layer 	repo_int[0] 	276517
scalar abilene_cost_network.node[0].content_store 	p_hit[0] 	-nan
scalar abilene_cost_network.node[0].content_store 	hits[0] 	0
scalar abilene_cost_network.node[0].content_store 	misses[0] 	0
scalar abilene_cost_network.node[0].content_store 	decision_yes[0] 	0
scalar abilene_cost_network.node[0].content_store 	decision_no[0] 	0
scalar abilene_cost_network.node[0].content_store 	decision_ratio[0] 	0
scalar abilene_cost_network.node[1].core_layer 	interests[1] 	180171
scalar abilene_cost_network.node[1].core_layer 	data[1] 	109247
scalar abilene_cost_network.node[1].content_store 	p_hit[1] 	0.39345954676391
scalar abilene_cost_network.node[1].content_store 	hits[1] 	70890
scalar abilene_cost_network.node[1].content_store 	misses[1] 	109281
scalar abilene_cost_network.node[1].content_store 	decision_yes[1] 	1122
scalar abilene_cost_network.node[1].content_store 	decision_no[1] 	108125
scalar abilene_cost_network.node[1].content_store 	decision_ratio[1] 	0.010270304905398
scalar abilene_cost_network.node[2].core_layer 	interests[2] 	289026
scalar abilene_cost_network.node[2].core_layer 	data[2] 	216483
scalar abilene_cost_network.node[2].content_store 	p_hit[2] 	0.25077674672867
scalar abilene_cost_network.node[2].content_store 	hits[2] 	72481
scalar abilene_cost_network.node[2].content_store 	misses[2] 	216545
scalar abilene_cost_network.node[2].content_store 	decision_yes[2] 	2153
scalar abilene_cost_network.node[2].content_store 	decision_no[2] 	214330
scalar abilene_cost_network.node[2].content_store 	decision_ratio[2] 	0.0099453536767321
scalar abilene_cost_network.node[3].core_layer 	interests[3] 	216483
scalar abilene_cost_network.node[3].core_layer 	data[3] 	203701
scalar abilene_cost_network.node[3].content_store 	p_hit[3] 	0.059039277910968
scalar abilene_cost_network.node[3].content_store 	hits[3] 	12781
scalar abilene_cost_network.node[3].content_store 	misses[3] 	203702
scalar abilene_cost_network.node[3].content_store 	decision_yes[3] 	2048
scalar abilene_cost_network.node[3].content_store 	decision_no[3] 	201653
scalar abilene_cost_network.node[3].content_store 	decision_ratio[3] 	0.010053951625176
scalar abilene_cost_network.node[4].core_layer 	interests[4] 	67083
scalar abilene_cost_network.node[4].core_layer 	data[4] 	60002
scalar abilene_cost_network.node[4].content_store 	p_hit[4] 	0.105555804004
scalar abilene_cost_network.node[4].content_store 	hits[4] 	7081
scalar abilene_cost_network.node[4].content_store 	misses[4] 	60002
scalar abilene_cost_network.node[4].content_store 	decision_yes[4] 	604
scalar abilene_cost_network.node[4].content_store 	decision_no[4] 	59398
scalar abilene_cost_network.node[4].content_store 	decision_ratio[4] 	0.010066331122296
scalar abilene_cost_network.node[5].core_layer 	interests[5] 	93691
scalar abilene_cost_network.node[5].core_layer 	repo_load[5] 	85865
scalar abilene_cost_network.node[5].core_layer 	data[5] 	0
scalar abilene_cost_network.node[5].content_store 	p_hit[5] 	0.083529901484668
scalar abilene_cost_network.node[5].content_store 	hits[5] 	7826
scalar abilene_cost_network.node[5].content_store 	misses[5] 	85865
scalar abilene_cost_network.node[5].content_store 	decision_yes[5] 	869
scalar abilene_cost_network.node[5].content_store 	decision_no[5] 	84996
scalar abilene_cost_network.node[5].content_store 	decision_ratio[5] 	0.010120538053922
scalar abilene_cost_network.node[6].core_layer 	interests[6] 	132974
scalar abilene_cost_network.node[6].core_layer 	repo_load[6] 	90997
scalar abilene_cost_network.node[6].core_layer 	data[6] 	33689
scalar abilene_cost_network.node[6].content_store 	p_hit[6] 	0.062327973889633
scalar abilene_cost_network.node[6].content_store 	hits[6] 	8288
scalar abilene_cost_network.node[6].content_store 	misses[6] 	124686
scalar abilene_cost_network.node[6].content_store 	decision_yes[6] 	1307
scalar abilene_cost_network.node[6].content_store 	decision_no[6] 	123379
scalar abilene_cost_network.node[6].content_store 	decision_ratio[6] 	0.010482331617022
scalar abilene_cost_network.node[7].core_layer 	interests[7] 	246322
scalar abilene_cost_network.node[7].core_layer 	repo_load[7] 	99655
scalar abilene_cost_network.node[7].core_layer 	data[7] 	132974
scalar abilene_cost_network.node[7].content_store 	p_hit[7] 	0.055581718238728
scalar abilene_cost_network.node[7].content_store 	hits[7] 	13691
scalar abilene_cost_network.node[7].content_store 	misses[7] 	232631
scalar abilene_cost_network.node[7].content_store 	decision_yes[7] 	2311
scalar abilene_cost_network.node[7].content_store 	decision_no[7] 	230318
scalar abilene_cost_network.node[7].content_store 	decision_ratio[7] 	0.0099342730270087
scalar abilene_cost_network.node[8].core_layer 	interests[8] 	180319
scalar abilene_cost_network.node[8].core_layer 	data[8] 	109705
scalar abilene_cost_network.node[8].content_store 	p_hit[8] 	0.39141743243918
scalar abilene_cost_network.node[8].content_store 	hits[8] 	70580
scalar abilene_cost_network.node[8].content_store 	misses[8] 	109739
scalar abilene_cost_network.node[8].content_store 	decision_yes[8] 	1046
scalar abilene_cost_network.node[8].content_store 	decision_no[8] 	108659
scalar abilene_cost_network.node[8].content_store 	decision_ratio[8] 	0.0095346611366847
scalar abilene_cost_network.node[9].core_layer 	interests[9] 	0
scalar abilene_cost_network.node[9].core_layer 	data[9] 	0
scalar abilene_cost_network.node[9].content_store 	p_hit[9] 	-nan
scalar abilene_cost_network.node[9].content_store 	hits[9] 	0
scalar abilene_cost_network.node[9].content_store 	misses[9] 	0
scalar abilene_cost_network.node[9].content_store 	decision_yes[9] 	0
scalar abilene_cost_network.node[9].content_store 	decision_no[9] 	0
scalar abilene_cost_network.node[9].content_store 	decision_ratio[9] 	0
scalar abilene_cost_network.node[10].core_layer 	interests[10] 	0
scalar abilene_cost_network.node[10].core_layer 	data[10] 	0
scalar abilene_cost_network.node[10].content_store 	p_hit[10] 	-nan
scalar abilene_cost_network.node[10].content_store 	hits[10] 	0
scalar abilene_cost_network.node[10].content_store 	misses[10] 	0
scalar abilene_cost_network.node[10].content_store 	decision_yes[10] 	0
scalar abilene_cost_network.node[10].content_store 	decision_no[10] 	0
scalar abilene_cost_network.node[10].content_store 	decision_ratio[10] 	0
scalar abilene_cost_network.client[1] 	hdistance[1] 	2.567001781977
scalar abilene_cost_network.client[1] 	downloads[1] 	180137
scalar abilene_cost_network.client[1] 	avg_time[1] 	0.010728942689
scalar abilene_cost_network.client[1] 	interests_sent[1] 	180171
scalar abilene_cost_network.client[2] 	hdistance[2] 	2.0600546305208
scalar abilene_cost_network.client[2] 	downloads[2] 	179753
scalar abilene_cost_network.client[2] 	avg_time[2] 	0.007495527805
scalar abilene_cost_network.client[2] 	interests_sent[2] 	179778
scalar abilene_cost_network.client[8] 	hdistance[8] 	1.7179687716671
scalar abilene_cost_network.client[8] 	downloads[8] 	180285
scalar abilene_cost_network.client[8] 	avg_time[8] 	0.007241828747
scalar abilene_cost_network.client[8] 	interests_sent[8] 	180319
