version 2
run General-56-20150316-17:25:59-15795
attr D costaware0.01
attr F nrr
attr R lru
attr a 1
attr configname General
attr csize 1e3
attr ctlg 1e5
attr datetime 20150316-17:25:59
attr experiment General
attr inifile omnetpp.ini
attr iterationvars "$rep=3, $net=cost_scenario, $lambda=100, $a=1, $ctlg=1e5, $F=nrr, $ttl=10, $D=costaware0.01, $R=lru, $csize=1e3, $window=60, $variance=0.05, $mytime=18000, $kappa=1, $priceratiovalue=2, $splits=0.333_0.333_0.334, $pricebits=0"
attr iterationvars2 "$rep=3, $net=cost_scenario, $lambda=100, $a=1, $ctlg=1e5, $F=nrr, $ttl=10, $D=costaware0.01, $R=lru, $csize=1e3, $window=60, $variance=0.05, $mytime=18000, $kappa=1, $priceratiovalue=2, $splits=0.333_0.333_0.334, $pricebits=0, $repetition=0"
attr kappa 1
attr lambda 100
attr measurement "$rep=3, $net=cost_scenario, $lambda=100, $a=1, $ctlg=1e5, $F=nrr, $ttl=10, $D=costaware0.01, $R=lru, $csize=1e3, $window=60, $variance=0.05, $mytime=18000, $kappa=1, $priceratiovalue=2, $splits=0.333_0.333_0.334, $pricebits=0"
attr mytime 18000
attr net cost_scenario
attr network networks.${net=cost_scenario}_network
attr pricebits 0
attr priceratiovalue 2
attr processid 15795
attr rep 3
attr repetition 0
attr replication #0
attr resultdir results
attr runnumber 56
attr seedset 3
attr splits 0.333_0.333_0.334
attr ttl 10
attr variance 0.05
attr window 60

scalar . 	a 	1
scalar . 	csize 	1e3
scalar . 	ctlg 	1e5
scalar . 	kappa 	1
scalar . 	lambda 	100
scalar . 	mytime 	18000
scalar . 	pricebits 	0
scalar . 	priceratiovalue 	2
scalar . 	rep 	3
scalar . 	ttl 	10
scalar . 	variance 	0.05
scalar . 	window 	60
scalar cost_scenario_network.content_distribution 	repo-0 	1
scalar cost_scenario_network.content_distribution 	repo-1 	2
scalar cost_scenario_network.content_distribution 	repo-2 	3
scalar cost_scenario_network.content_distribution 	client-0 	0
scalar cost_scenario_network.content_distribution 	repo-0_card 	33497
scalar cost_scenario_network.content_distribution 	repo-0_price 	0
scalar cost_scenario_network.content_distribution 	repo-1_card 	33170
scalar cost_scenario_network.content_distribution 	repo-1_price 	2
scalar cost_scenario_network.content_distribution 	repo-2_card 	33333
scalar cost_scenario_network.content_distribution 	repo-2_price 	1
scalar cost_scenario_network.statistics 	repo_popularity[0] 	0.40943794184311
scalar cost_scenario_network.statistics 	repo_popularity[1] 	0.31850493624532
scalar cost_scenario_network.statistics 	repo_popularity[2] 	0.27205712191158
scalar cost_scenario_network.statistics 	stabilization_time 	1887.4
scalar cost_scenario_network.statistics 	p_hit 	0.20311301158373
scalar cost_scenario_network.statistics 	interests 	748118
scalar cost_scenario_network.statistics 	data 	298082.75
scalar cost_scenario_network.statistics 	hdistance 	1.3247084533933
scalar cost_scenario_network.statistics 	avg_time 	0
scalar cost_scenario_network.statistics 	downloads 	1800141
scalar cost_scenario_network.statistics 	total_cost 	673215
scalar cost_scenario_network.statistics 	total_replicas 	100000
scalar cost_scenario_network.statistics 	inner_hit 	0.33764577330331
scalar cost_scenario_network.statistics 	interests_sent 	1800141
scalar cost_scenario_network.node[0].core_layer 	interests[0] 	1800141
scalar cost_scenario_network.node[0].core_layer 	data[0] 	1192331
scalar cost_scenario_network.node[0].core_layer 	repo_int[0] 	1192331
scalar cost_scenario_network.node[0].content_store 	p_hit[0] 	0.33764577330331
scalar cost_scenario_network.node[0].content_store 	hits[0] 	607810
scalar cost_scenario_network.node[0].content_store 	misses[0] 	1192331
scalar cost_scenario_network.node[0].content_store 	decision_yes[0] 	6818
scalar cost_scenario_network.node[0].content_store 	decision_no[0] 	1185513
scalar cost_scenario_network.node[0].content_store 	decision_ratio[0] 	0.005718210798847
scalar cost_scenario_network.node[0].content_store 	cache_value[0] 	6.611900311595
scalar cost_scenario_network.node[0].content_store 	average_price_of_cache[0] 	1.578
scalar cost_scenario_network.node[0].content_store 	correction_factor[0] 	0.00999000999001
scalar cost_scenario_network.node[0].content_store 	kappa[0] 	1
scalar cost_scenario_network.node[1].core_layer 	interests[1] 	736706
scalar cost_scenario_network.node[1].core_layer 	repo_load[1] 	736706
scalar cost_scenario_network.node[1].core_layer 	data[1] 	0
scalar cost_scenario_network.node[1].content_store 	p_hit[1] 	0
scalar cost_scenario_network.node[1].content_store 	hits[1] 	0
scalar cost_scenario_network.node[1].content_store 	misses[1] 	736706
scalar cost_scenario_network.node[1].content_store 	decision_yes[1] 	0
scalar cost_scenario_network.node[1].content_store 	decision_no[1] 	736706
scalar cost_scenario_network.node[1].content_store 	decision_ratio[1] 	0
scalar cost_scenario_network.node[1].content_store 	cache_value[1] 	8.3675036830177e-317
scalar cost_scenario_network.node[1].content_store 	average_price_of_cache[1] 	-nan
scalar cost_scenario_network.node[1].content_store 	correction_factor[1] 	0.00999000999001
scalar cost_scenario_network.node[1].content_store 	kappa[1] 	1
scalar cost_scenario_network.node[2].core_layer 	interests[2] 	217590
scalar cost_scenario_network.node[2].core_layer 	repo_load[2] 	217590
scalar cost_scenario_network.node[2].core_layer 	data[2] 	0
scalar cost_scenario_network.node[2].content_store 	p_hit[2] 	0
scalar cost_scenario_network.node[2].content_store 	hits[2] 	0
scalar cost_scenario_network.node[2].content_store 	misses[2] 	217590
scalar cost_scenario_network.node[2].content_store 	decision_yes[2] 	0
scalar cost_scenario_network.node[2].content_store 	decision_no[2] 	217590
scalar cost_scenario_network.node[2].content_store 	decision_ratio[2] 	0
scalar cost_scenario_network.node[2].content_store 	cache_value[2] 	8.3690925981347e-317
scalar cost_scenario_network.node[2].content_store 	average_price_of_cache[2] 	-nan
scalar cost_scenario_network.node[2].content_store 	correction_factor[2] 	0.00999000999001
scalar cost_scenario_network.node[2].content_store 	kappa[2] 	1
scalar cost_scenario_network.node[3].core_layer 	interests[3] 	238035
scalar cost_scenario_network.node[3].core_layer 	repo_load[3] 	238035
scalar cost_scenario_network.node[3].core_layer 	data[3] 	0
scalar cost_scenario_network.node[3].content_store 	p_hit[3] 	0
scalar cost_scenario_network.node[3].content_store 	hits[3] 	0
scalar cost_scenario_network.node[3].content_store 	misses[3] 	238035
scalar cost_scenario_network.node[3].content_store 	decision_yes[3] 	0
scalar cost_scenario_network.node[3].content_store 	decision_no[3] 	238035
scalar cost_scenario_network.node[3].content_store 	decision_ratio[3] 	0
scalar cost_scenario_network.node[3].content_store 	cache_value[3] 	8.3706815132517e-317
scalar cost_scenario_network.node[3].content_store 	average_price_of_cache[3] 	-nan
scalar cost_scenario_network.node[3].content_store 	correction_factor[3] 	0.00999000999001
scalar cost_scenario_network.node[3].content_store 	kappa[3] 	1
scalar cost_scenario_network.client[0] 	hdistance[0] 	1.3247084533933
scalar cost_scenario_network.client[0] 	downloads[0] 	1800141
scalar cost_scenario_network.client[0] 	avg_time[0] 	0
scalar cost_scenario_network.client[0] 	interests_sent[0] 	1800141
