version 2
run General-1-20150902-21:12:22-5565
attr C 1e3
attr D fix1
attr F spr
attr R lru_repr
attr a 1
attr brates 0.3_0.7_1.5_2.5_3.5
attr configname General
attr ctlg 1e5
attr datetime 20150902-21:12:22
attr experiment General
attr inifile omnetpp.ini
attr iterationvars "$net=abilene_nodelay, $rep=0, $lambda=100, $a=1, $ctlg=1e5, $brates=0.3_0.7_1.5_2.5_3.5, $F=spr, $ttl=1000, $D=fix1, $R=lru_repr, $proactiveprob=1, $C=1e3, $window=60, $variance=0.05, $mytime=180000"
attr iterationvars2 "$net=abilene_nodelay, $rep=0, $lambda=100, $a=1, $ctlg=1e5, $brates=0.3_0.7_1.5_2.5_3.5, $F=spr, $ttl=1000, $D=fix1, $R=lru_repr, $proactiveprob=1, $C=1e3, $window=60, $variance=0.05, $mytime=180000, $repetition=0"
attr lambda 100
attr measurement "$net=abilene_nodelay, $rep=0, $lambda=100, $a=1, $ctlg=1e5, $brates=0.3_0.7_1.5_2.5_3.5, $F=spr, $ttl=1000, $D=fix1, $R=lru_repr, $proactiveprob=1, $C=1e3, $window=60, $variance=0.05, $mytime=180000"
attr mytime 180000
attr net abilene_nodelay
attr network networks.${net=abilene_nodelay}_network
attr proactiveprob 1
attr processid 5565
attr rep 0
attr repetition 0
attr replication #0
attr resultdir results
attr runnumber 1
attr seedset 0
attr ttl 1000
attr variance 0.05
attr window 60

scalar . 	C 	1e3
scalar . 	a 	1
scalar . 	ctlg 	1e5
scalar . 	lambda 	100
scalar . 	mytime 	180000
scalar . 	proactiveprob 	1
scalar . 	rep 	0
scalar . 	ttl 	1000
scalar . 	variance 	0.05
scalar . 	window 	60
scalar abilene_nodelay_network.content_distribution 	repo-0 	5
scalar abilene_nodelay_network.content_distribution 	repo-1 	8
scalar abilene_nodelay_network.content_distribution 	repo-2 	9
scalar abilene_nodelay_network.content_distribution 	repo-3 	0
scalar abilene_nodelay_network.content_distribution 	repo-4 	1
scalar abilene_nodelay_network.content_distribution 	repo-5 	7
scalar abilene_nodelay_network.content_distribution 	repo-6 	6
scalar abilene_nodelay_network.content_distribution 	repo-7 	2
scalar abilene_nodelay_network.content_distribution 	repo-8 	4
scalar abilene_nodelay_network.content_distribution 	repo-9 	10
scalar abilene_nodelay_network.content_distribution 	repo-10 	3
scalar abilene_nodelay_network.content_distribution 	client-0 	10
scalar abilene_nodelay_network.content_distribution 	client-1 	9
scalar abilene_nodelay_network.content_distribution 	client-2 	8
scalar abilene_nodelay_network.content_distribution 	client-3 	7
scalar abilene_nodelay_network.content_distribution 	client-4 	3
scalar abilene_nodelay_network.content_distribution 	client-5 	6
scalar abilene_nodelay_network.content_distribution 	client-6 	5
scalar abilene_nodelay_network.content_distribution 	client-7 	1
scalar abilene_nodelay_network.content_distribution 	client-8 	4
scalar abilene_nodelay_network.content_distribution 	client-9 	0
scalar abilene_nodelay_network.content_distribution 	client-10 	2
scalar abilene_nodelay_network.content_distribution 	repo-0_card 	9071
scalar abilene_nodelay_network.content_distribution 	repo-0_price 	0
scalar abilene_nodelay_network.content_distribution 	repo-1_card 	8986
scalar abilene_nodelay_network.content_distribution 	repo-1_price 	0
scalar abilene_nodelay_network.content_distribution 	repo-2_card 	9050
scalar abilene_nodelay_network.content_distribution 	repo-2_price 	0
scalar abilene_nodelay_network.content_distribution 	repo-3_card 	8986
scalar abilene_nodelay_network.content_distribution 	repo-3_price 	0
scalar abilene_nodelay_network.content_distribution 	repo-4_card 	9064
scalar abilene_nodelay_network.content_distribution 	repo-4_price 	0
scalar abilene_nodelay_network.content_distribution 	repo-5_card 	9170
scalar abilene_nodelay_network.content_distribution 	repo-5_price 	0
scalar abilene_nodelay_network.content_distribution 	repo-6_card 	9151
scalar abilene_nodelay_network.content_distribution 	repo-6_price 	0
scalar abilene_nodelay_network.content_distribution 	repo-7_card 	9112
scalar abilene_nodelay_network.content_distribution 	repo-7_price 	0
scalar abilene_nodelay_network.content_distribution 	repo-8_card 	9132
scalar abilene_nodelay_network.content_distribution 	repo-8_price 	0
scalar abilene_nodelay_network.content_distribution 	repo-9_card 	9101
scalar abilene_nodelay_network.content_distribution 	repo-9_price 	0
scalar abilene_nodelay_network.content_distribution 	repo-10_card 	9177
scalar abilene_nodelay_network.content_distribution 	repo-10_price 	0
scalar abilene_nodelay_network.statistics 	stabilization_time 	36060
scalar abilene_nodelay_network.statistics 	p_hit 	0.31158855270704
scalar abilene_nodelay_network.statistics 	interests 	40356345.454545
scalar abilene_nodelay_network.statistics 	data 	18541809.545455
scalar abilene_nodelay_network.statistics 	hdistance 	1.0967654605037
scalar abilene_nodelay_network.statistics 	avg_time 	0
scalar abilene_nodelay_network.statistics 	downloads 	197980075
scalar abilene_nodelay_network.statistics 	total_cost 	0
scalar abilene_nodelay_network.statistics 	total_replicas 	100000
scalar abilene_nodelay_network.statistics 	"representations_downloaded 0.445254:0.0392425:0.0280913:0.023732:0.46368:" 	0
scalar abilene_nodelay_network.statistics 	"slots_per_representation 100:233:500:833:1167:" 	0
scalar abilene_nodelay_network.statistics 	inner_hit 	0.48661719114916
scalar abilene_nodelay_network.statistics 	execution_time 	9469
scalar abilene_nodelay_network.node[0].core_layer 	interests[0] 	27080489
scalar abilene_nodelay_network.node[0].core_layer 	repo_load[0] 	8491528
scalar abilene_nodelay_network.node[0].core_layer 	data[0] 	7897027
scalar abilene_nodelay_network.node[0].core_layer 	slots_sent[face$o[1]->client[0]] 	12063988922
scalar abilene_nodelay_network.node[0].core_layer 	slots_sent[face$o[2]->node[1]] 	1496688589
scalar abilene_nodelay_network.node[0].core_layer 	slots_sent[face$o[3]->node[10]] 	413898144
scalar abilene_nodelay_network.node[0].content_store 	p_hit[0] 	0.39482056620174
scalar abilene_nodelay_network.node[0].content_store 	hits[0] 	10691934
scalar abilene_nodelay_network.node[0].content_store 	misses[0] 	16388555
scalar abilene_nodelay_network.node[0].content_store 	decision_yes[0] 	7897027
scalar abilene_nodelay_network.node[0].content_store 	decision_no[0] 	8491528
scalar abilene_nodelay_network.node[0].content_store 	decision_ratio[0] 	0.48186231183896
scalar abilene_nodelay_network.node[0].content_store 	"representation_breakdown[0] 3064:432:196:131:473:" 	0
scalar abilene_nodelay_network.node[0].proactive_component 	hdistance[0].proactive_component 	2.5913030947307
scalar abilene_nodelay_network.node[0].proactive_component 	downloads[0].proactive_component 	2255285
scalar abilene_nodelay_network.node[0].proactive_component 	avg_time[0].proactive_component 	0
scalar abilene_nodelay_network.node[1].core_layer 	interests[1] 	47035869
scalar abilene_nodelay_network.node[1].core_layer 	repo_load[1] 	9595702
scalar abilene_nodelay_network.node[1].core_layer 	data[1] 	24347252
scalar abilene_nodelay_network.node[1].core_layer 	slots_sent[face$o[1]->client[1]] 	10655401239
scalar abilene_nodelay_network.node[1].core_layer 	slots_sent[face$o[2]->node[0]] 	1756488332
scalar abilene_nodelay_network.node[1].core_layer 	slots_sent[face$o[3]->node[10]] 	1372540082
scalar abilene_nodelay_network.node[1].core_layer 	slots_sent[face$o[4]->node[2]] 	3505604771
scalar abilene_nodelay_network.node[1].content_store 	p_hit[1] 	0.27836022334359
scalar abilene_nodelay_network.node[1].content_store 	hits[1] 	13092915
scalar abilene_nodelay_network.node[1].content_store 	misses[1] 	33942954
scalar abilene_nodelay_network.node[1].content_store 	decision_yes[1] 	24347252
scalar abilene_nodelay_network.node[1].content_store 	decision_no[1] 	9595702
scalar abilene_nodelay_network.node[1].content_store 	decision_ratio[1] 	0.71729914844772
scalar abilene_nodelay_network.node[1].content_store 	"representation_breakdown[1] 3114:509:225:154:425:" 	0
scalar abilene_nodelay_network.node[1].proactive_component 	hdistance[1].proactive_component 	2.1324371125908
scalar abilene_nodelay_network.node[1].proactive_component 	downloads[1].proactive_component 	5651807
scalar abilene_nodelay_network.node[1].proactive_component 	avg_time[1].proactive_component 	0
scalar abilene_nodelay_network.node[2].core_layer 	interests[2] 	62021655
scalar abilene_nodelay_network.node[2].core_layer 	repo_load[2] 	10725185
scalar abilene_nodelay_network.node[2].core_layer 	data[2] 	36222254
scalar abilene_nodelay_network.node[2].core_layer 	slots_sent[face$o[1]->client[2]] 	10374941195
scalar abilene_nodelay_network.node[2].core_layer 	slots_sent[face$o[2]->node[1]] 	3871457770
scalar abilene_nodelay_network.node[2].core_layer 	slots_sent[face$o[3]->node[3]] 	4597061121
scalar abilene_nodelay_network.node[2].core_layer 	slots_sent[face$o[4]->node[8]] 	1890304042
scalar abilene_nodelay_network.node[2].content_store 	p_hit[2] 	0.24304762586551
scalar abilene_nodelay_network.node[2].content_store 	hits[2] 	15074216
scalar abilene_nodelay_network.node[2].content_store 	misses[2] 	46947439
scalar abilene_nodelay_network.node[2].content_store 	decision_yes[2] 	36222254
scalar abilene_nodelay_network.node[2].content_store 	decision_no[2] 	10725185
scalar abilene_nodelay_network.node[2].content_store 	decision_ratio[2] 	0.77154909344469
scalar abilene_nodelay_network.node[2].content_store 	"representation_breakdown[2] 3168:557:237:151:408:" 	0
scalar abilene_nodelay_network.node[2].proactive_component 	hdistance[2].proactive_component 	2.0343306674623
scalar abilene_nodelay_network.node[2].proactive_component 	downloads[2].proactive_component 	7598891
scalar abilene_nodelay_network.node[2].proactive_component 	avg_time[2].proactive_component 	0
scalar abilene_nodelay_network.node[3].core_layer 	interests[3] 	58435733
scalar abilene_nodelay_network.node[3].core_layer 	repo_load[3] 	9428630
scalar abilene_nodelay_network.node[3].core_layer 	data[3] 	33541897
scalar abilene_nodelay_network.node[3].core_layer 	slots_sent[face$o[1]->client[3]] 	11147523018
scalar abilene_nodelay_network.node[3].core_layer 	slots_sent[face$o[2]->node[2]] 	4544737551
scalar abilene_nodelay_network.node[3].core_layer 	slots_sent[face$o[3]->node[4]] 	2801430428
scalar abilene_nodelay_network.node[3].core_layer 	slots_sent[face$o[4]->node[7]] 	2039862536
scalar abilene_nodelay_network.node[3].content_store 	p_hit[3] 	0.26465323879825
scalar abilene_nodelay_network.node[3].content_store 	hits[3] 	15465206
scalar abilene_nodelay_network.node[3].content_store 	misses[3] 	42970527
scalar abilene_nodelay_network.node[3].content_store 	decision_yes[3] 	33541897
scalar abilene_nodelay_network.node[3].content_store 	decision_no[3] 	9428630
scalar abilene_nodelay_network.node[3].content_store 	decision_ratio[3] 	0.78057913974385
scalar abilene_nodelay_network.node[3].content_store 	"representation_breakdown[3] 3187:535:231:161:406:" 	0
scalar abilene_nodelay_network.node[3].proactive_component 	hdistance[3].proactive_component 	2.0352949682453
scalar abilene_nodelay_network.node[3].proactive_component 	downloads[3].proactive_component 	7316652
scalar abilene_nodelay_network.node[3].proactive_component 	avg_time[3].proactive_component 	0
scalar abilene_nodelay_network.node[4].core_layer 	interests[4] 	36249008
scalar abilene_nodelay_network.node[4].core_layer 	repo_load[4] 	8610377
scalar abilene_nodelay_network.node[4].core_layer 	data[4] 	15308784
scalar abilene_nodelay_network.node[4].core_layer 	slots_sent[face$o[1]->client[4]] 	11720070171
scalar abilene_nodelay_network.node[4].core_layer 	slots_sent[face$o[2]->node[3]] 	2576358781
scalar abilene_nodelay_network.node[4].core_layer 	slots_sent[face$o[3]->node[5]] 	1495159516
scalar abilene_nodelay_network.node[4].content_store 	p_hit[4] 	0.34014301853447
scalar abilene_nodelay_network.node[4].content_store 	hits[4] 	12329847
scalar abilene_nodelay_network.node[4].content_store 	misses[4] 	23919161
scalar abilene_nodelay_network.node[4].content_store 	decision_yes[4] 	15308784
scalar abilene_nodelay_network.node[4].content_store 	decision_no[4] 	8610377
scalar abilene_nodelay_network.node[4].content_store 	decision_ratio[4] 	0.64002178002815
scalar abilene_nodelay_network.node[4].content_store 	"representation_breakdown[4] 3006:439:234:138:456:" 	0
scalar abilene_nodelay_network.node[4].proactive_component 	hdistance[4].proactive_component 	2.2285196728137
scalar abilene_nodelay_network.node[4].proactive_component 	downloads[4].proactive_component 	3999555
scalar abilene_nodelay_network.node[4].proactive_component 	avg_time[4].proactive_component 	0
scalar abilene_nodelay_network.node[5].core_layer 	interests[5] 	29143233
scalar abilene_nodelay_network.node[5].core_layer 	repo_load[5] 	9991717
scalar abilene_nodelay_network.node[5].core_layer 	data[5] 	9399119
scalar abilene_nodelay_network.node[5].core_layer 	slots_sent[face$o[1]->client[5]] 	10483609499
scalar abilene_nodelay_network.node[5].core_layer 	slots_sent[face$o[2]->node[4]] 	1450095482
scalar abilene_nodelay_network.node[5].core_layer 	slots_sent[face$o[3]->node[6]] 	1032822851
scalar abilene_nodelay_network.node[5].content_store 	p_hit[5] 	0.33463675769946
scalar abilene_nodelay_network.node[5].content_store 	hits[5] 	9752397
scalar abilene_nodelay_network.node[5].content_store 	misses[5] 	19390836
scalar abilene_nodelay_network.node[5].content_store 	decision_yes[5] 	9399119
scalar abilene_nodelay_network.node[5].content_store 	decision_no[5] 	9991717
scalar abilene_nodelay_network.node[5].content_store 	decision_ratio[5] 	0.48471963766802
scalar abilene_nodelay_network.node[5].content_store 	"representation_breakdown[5] 3162:481:194:117:466:" 	0
scalar abilene_nodelay_network.node[5].proactive_component 	hdistance[5].proactive_component 	2.2950663077598
scalar abilene_nodelay_network.node[5].proactive_component 	downloads[5].proactive_component 	2714539
scalar abilene_nodelay_network.node[5].proactive_component 	avg_time[5].proactive_component 	0
scalar abilene_nodelay_network.node[6].core_layer 	interests[6] 	32710027
scalar abilene_nodelay_network.node[6].core_layer 	repo_load[6] 	8556951
scalar abilene_nodelay_network.node[6].core_layer 	data[6] 	12375811
scalar abilene_nodelay_network.node[6].core_layer 	slots_sent[face$o[1]->client[6]] 	11832067473
scalar abilene_nodelay_network.node[6].core_layer 	slots_sent[face$o[2]->node[5]] 	1072664362
scalar abilene_nodelay_network.node[6].core_layer 	slots_sent[face$o[3]->node[7]] 	2214932656
scalar abilene_nodelay_network.node[6].content_store 	p_hit[6] 	0.36005060466627
scalar abilene_nodelay_network.node[6].content_store 	hits[6] 	11777265
scalar abilene_nodelay_network.node[6].content_store 	misses[6] 	20932762
scalar abilene_nodelay_network.node[6].content_store 	decision_yes[6] 	12375811
scalar abilene_nodelay_network.node[6].content_store 	decision_no[6] 	8556951
scalar abilene_nodelay_network.node[6].content_store 	decision_ratio[6] 	0.59121729851034
scalar abilene_nodelay_network.node[6].content_store 	"representation_breakdown[6] 3096:520:210:127:450:" 	0
scalar abilene_nodelay_network.node[6].proactive_component 	hdistance[6].proactive_component 	2.1938277177313
scalar abilene_nodelay_network.node[6].proactive_component 	downloads[6].proactive_component 	3418541
scalar abilene_nodelay_network.node[6].proactive_component 	avg_time[6].proactive_component 	0
scalar abilene_nodelay_network.node[7].core_layer 	interests[7] 	44376200
scalar abilene_nodelay_network.node[7].core_layer 	repo_load[7] 	9295300
scalar abilene_nodelay_network.node[7].core_layer 	data[7] 	21254058
scalar abilene_nodelay_network.node[7].core_layer 	slots_sent[face$o[1]->client[7]] 	11725733697
scalar abilene_nodelay_network.node[7].core_layer 	slots_sent[face$o[2]->node[3]] 	1892956535
scalar abilene_nodelay_network.node[7].core_layer 	slots_sent[face$o[3]->node[6]] 	2362499617
scalar abilene_nodelay_network.node[7].core_layer 	slots_sent[face$o[4]->node[8]] 	1724765054
scalar abilene_nodelay_network.node[7].content_store 	p_hit[7] 	0.3115823797441
scalar abilene_nodelay_network.node[7].content_store 	hits[7] 	13826842
scalar abilene_nodelay_network.node[7].content_store 	misses[7] 	30549358
scalar abilene_nodelay_network.node[7].content_store 	decision_yes[7] 	21254058
scalar abilene_nodelay_network.node[7].content_store 	decision_no[7] 	9295300
scalar abilene_nodelay_network.node[7].content_store 	decision_ratio[7] 	0.69572846669969
scalar abilene_nodelay_network.node[7].content_store 	"representation_breakdown[7] 3125:501:207:151:435:" 	0
scalar abilene_nodelay_network.node[7].proactive_component 	hdistance[7].proactive_component 	1.9794738934589
scalar abilene_nodelay_network.node[7].proactive_component 	downloads[7].proactive_component 	5337398
scalar abilene_nodelay_network.node[7].proactive_component 	avg_time[7].proactive_component 	0
scalar abilene_nodelay_network.node[8].core_layer 	interests[8] 	42355919
scalar abilene_nodelay_network.node[8].core_layer 	repo_load[8] 	8585021
scalar abilene_nodelay_network.node[8].core_layer 	data[8] 	20108926
scalar abilene_nodelay_network.node[8].core_layer 	slots_sent[face$o[1]->client[8]] 	11748559922
scalar abilene_nodelay_network.node[8].core_layer 	slots_sent[face$o[2]->node[2]] 	1650213004
scalar abilene_nodelay_network.node[8].core_layer 	slots_sent[face$o[3]->node[7]] 	1639517157
scalar abilene_nodelay_network.node[8].core_layer 	slots_sent[face$o[4]->node[9]] 	2153839579
scalar abilene_nodelay_network.node[8].content_store 	p_hit[8] 	0.32255166037125
scalar abilene_nodelay_network.node[8].content_store 	hits[8] 	13661972
scalar abilene_nodelay_network.node[8].content_store 	misses[8] 	28693947
scalar abilene_nodelay_network.node[8].content_store 	decision_yes[8] 	20108926
scalar abilene_nodelay_network.node[8].content_store 	decision_no[8] 	8585021
scalar abilene_nodelay_network.node[8].content_store 	decision_ratio[8] 	0.70080724690821
scalar abilene_nodelay_network.node[8].content_store 	"representation_breakdown[8] 3027:547:221:127:446:" 	0
scalar abilene_nodelay_network.node[8].proactive_component 	hdistance[8].proactive_component 	1.9583169796849
scalar abilene_nodelay_network.node[8].proactive_component 	downloads[8].proactive_component 	5230739
scalar abilene_nodelay_network.node[8].proactive_component 	avg_time[8].proactive_component 	0
scalar abilene_nodelay_network.node[9].core_layer 	interests[9] 	32768447
scalar abilene_nodelay_network.node[9].core_layer 	repo_load[9] 	8833989
scalar abilene_nodelay_network.node[9].core_layer 	data[9] 	12386928
scalar abilene_nodelay_network.node[9].core_layer 	slots_sent[face$o[1]->client[9]] 	11546170291
scalar abilene_nodelay_network.node[9].core_layer 	slots_sent[face$o[2]->node[10]] 	1293958635
scalar abilene_nodelay_network.node[9].core_layer 	slots_sent[face$o[3]->node[8]] 	1997028633
scalar abilene_nodelay_network.node[9].content_store 	p_hit[9] 	0.35239784174087
scalar abilene_nodelay_network.node[9].content_store 	hits[9] 	11547530
scalar abilene_nodelay_network.node[9].content_store 	misses[9] 	21220917
scalar abilene_nodelay_network.node[9].content_store 	decision_yes[9] 	12386928
scalar abilene_nodelay_network.node[9].content_store 	decision_no[9] 	8833989
scalar abilene_nodelay_network.node[9].content_store 	decision_ratio[9] 	0.58371313548797
scalar abilene_nodelay_network.node[9].content_store 	"representation_breakdown[9] 3127:476:214:145:441:" 	0
scalar abilene_nodelay_network.node[9].proactive_component 	hdistance[9].proactive_component 	2.1022365419794
scalar abilene_nodelay_network.node[9].proactive_component 	downloads[9].proactive_component 	3453814
scalar abilene_nodelay_network.node[9].proactive_component 	avg_time[9].proactive_component 	0
scalar abilene_nodelay_network.node[10].core_layer 	interests[10] 	31743220
scalar abilene_nodelay_network.node[10].core_layer 	repo_load[10] 	9525167
scalar abilene_nodelay_network.node[10].core_layer 	data[10] 	11117849
scalar abilene_nodelay_network.node[10].core_layer 	slots_sent[face$o[1]->client[10]] 	11151878597
scalar abilene_nodelay_network.node[10].core_layer 	slots_sent[face$o[2]->node[0]] 	446303174
scalar abilene_nodelay_network.node[10].core_layer 	slots_sent[face$o[3]->node[1]] 	1264795203
scalar abilene_nodelay_network.node[10].core_layer 	slots_sent[face$o[4]->node[9]] 	1209145953
scalar abilene_nodelay_network.node[10].content_store 	p_hit[10] 	0.34968739781282
scalar abilene_nodelay_network.node[10].content_store 	hits[10] 	11100204
scalar abilene_nodelay_network.node[10].content_store 	misses[10] 	20643016
scalar abilene_nodelay_network.node[10].content_store 	decision_yes[10] 	11117849
scalar abilene_nodelay_network.node[10].content_store 	decision_no[10] 	9525167
scalar abilene_nodelay_network.node[10].content_store 	decision_ratio[10] 	0.53857677579671
scalar abilene_nodelay_network.node[10].content_store 	"representation_breakdown[10] 3038:426:202:142:466:" 	0
scalar abilene_nodelay_network.node[10].proactive_component 	hdistance[10].proactive_component 	2.1161297612297
scalar abilene_nodelay_network.node[10].proactive_component 	downloads[10].proactive_component 	3416213
scalar abilene_nodelay_network.node[10].proactive_component 	avg_time[10].proactive_component 	0
scalar abilene_nodelay_network.client[0] 	hdistance[0].real 	1.1919639726779
scalar abilene_nodelay_network.client[0] 	downloads[0].real 	17997674
scalar abilene_nodelay_network.client[0] 	avg_time[0].real 	0
scalar abilene_nodelay_network.client[1] 	hdistance[1].real 	1.1192931475319
scalar abilene_nodelay_network.client[1] 	downloads[1].real 	17997136
scalar abilene_nodelay_network.client[1] 	avg_time[1].real 	0
scalar abilene_nodelay_network.client[2] 	hdistance[2].real 	1.0183835576234
scalar abilene_nodelay_network.client[2] 	downloads[2].real 	17996571
scalar abilene_nodelay_network.client[2] 	avg_time[2].real 	0
scalar abilene_nodelay_network.client[3] 	hdistance[3].real 	1.0009030637831
scalar abilene_nodelay_network.client[3] 	downloads[3].real 	17999836
scalar abilene_nodelay_network.client[3] 	avg_time[3].real 	0
scalar abilene_nodelay_network.client[4] 	hdistance[4].real 	1.1386995935883
scalar abilene_nodelay_network.client[4] 	downloads[4].real 	18003910
scalar abilene_nodelay_network.client[4] 	avg_time[4].real 	0
scalar abilene_nodelay_network.client[5] 	hdistance[5].real 	1.2715377980921
scalar abilene_nodelay_network.client[5] 	downloads[5].real 	17998091
scalar abilene_nodelay_network.client[5] 	avg_time[5].real 	0
scalar abilene_nodelay_network.client[6] 	hdistance[6].real 	1.1468972604264
scalar abilene_nodelay_network.client[6] 	downloads[6].real 	18002800
scalar abilene_nodelay_network.client[6] 	avg_time[6].real 	0
scalar abilene_nodelay_network.client[7] 	hdistance[7].real 	0.98915871899441
scalar abilene_nodelay_network.client[7] 	downloads[7].real 	17996674
scalar abilene_nodelay_network.client[7] 	avg_time[7].real 	0
scalar abilene_nodelay_network.client[8] 	hdistance[8].real 	0.9579975204072
scalar abilene_nodelay_network.client[8] 	downloads[8].real 	17994890
scalar abilene_nodelay_network.client[8] 	avg_time[8].real 	0
scalar abilene_nodelay_network.client[9] 	hdistance[9].real 	1.0842648355309
scalar abilene_nodelay_network.client[9] 	downloads[9].real 	17998884
scalar abilene_nodelay_network.client[9] 	avg_time[9].real 	0
scalar abilene_nodelay_network.client[10] 	hdistance[10].real 	1.1453205968852
scalar abilene_nodelay_network.client[10] 	downloads[10].real 	17993609
scalar abilene_nodelay_network.client[10] 	avg_time[10].real 	0
