version 2
run General-115-20140511-15:01:14-12183
attr D costprobprodcorr0.01
attr F nrr
attr R lru
attr a 1
attr configname General
attr csize 1e3
attr ctlg 1e5
attr datetime 20140511-15:01:14
attr experiment General
attr inifile omnetpp.ini
attr iterationvars "$net=one_cache_scenario_3_links, $rep=2, $priceratiovalue=10, $weights=0.333_0.333_0.334, $a=1, $ctlg=1e5, $F=nrr, $ttl=1000, $D=costprobprodcorr0.01, $xi=2, $R=lru, $csize=1e3"
attr iterationvars2 "$net=one_cache_scenario_3_links, $rep=2, $priceratiovalue=10, $weights=0.333_0.333_0.334, $a=1, $ctlg=1e5, $F=nrr, $ttl=1000, $D=costprobprodcorr0.01, $xi=2, $R=lru, $csize=1e3, $repetition=0"
attr measurement "$net=one_cache_scenario_3_links, $rep=2, $priceratiovalue=10, $weights=0.333_0.333_0.334, $a=1, $ctlg=1e5, $F=nrr, $ttl=1000, $D=costprobprodcorr0.01, $xi=2, $R=lru, $csize=1e3"
attr net one_cache_scenario_3_links
attr network networks.${net=one_cache_scenario_3_links}_network
attr priceratiovalue 10
attr processid 12183
attr rep 2
attr repetition 0
attr replication #0
attr resultdir results
attr runnumber 115
attr seedset 2
attr ttl 1000
attr weights 0.333_0.333_0.334
attr xi 2

scalar . 	a 	1
scalar . 	csize 	1e3
scalar . 	ctlg 	1e5
scalar . 	priceratiovalue 	10
scalar . 	rep 	2
scalar . 	ttl 	1000
scalar . 	xi 	2
scalar one_cache_scenario_3_links_network.content_distribution 	repo-0 	4
scalar one_cache_scenario_3_links_network.content_distribution 	repo-1 	5
scalar one_cache_scenario_3_links_network.content_distribution 	repo-2 	6
scalar one_cache_scenario_3_links_network.content_distribution 	client-0 	0
scalar one_cache_scenario_3_links_network.content_distribution 	repo-0_card 	33329
scalar one_cache_scenario_3_links_network.content_distribution 	repo-1_card 	33051
scalar one_cache_scenario_3_links_network.content_distribution 	repo-2_card 	33620
scalar one_cache_scenario_3_links_network.statistics 	p_hit 	0.079392541743412
scalar one_cache_scenario_3_links_network.statistics 	interests 	66469
scalar one_cache_scenario_3_links_network.statistics 	data 	40794.571428571
scalar one_cache_scenario_3_links_network.statistics 	hdistance 	1.5889183790431
scalar one_cache_scenario_3_links_network.statistics 	avg_time 	0
scalar one_cache_scenario_3_links_network.statistics 	downloads 	179721
scalar one_cache_scenario_3_links_network.statistics 	total_cost 	265007
scalar one_cache_scenario_3_links_network.statistics 	total_replicas 	100000
scalar one_cache_scenario_3_links_network.statistics 	interests_sent 	179721
scalar one_cache_scenario_3_links_network.node[0].core_layer 	interests[0] 	179721
scalar one_cache_scenario_3_links_network.node[0].core_layer 	data[0] 	142781
scalar one_cache_scenario_3_links_network.node[0].core_layer 	repo_int[0] 	142781
scalar one_cache_scenario_3_links_network.node[0].content_store 	p_hit[0] 	0.20554081047846
scalar one_cache_scenario_3_links_network.node[0].content_store 	hits[0] 	36940
scalar one_cache_scenario_3_links_network.node[0].content_store 	misses[0] 	142781
scalar one_cache_scenario_3_links_network.node[0].content_store 	decision_yes[0] 	584
scalar one_cache_scenario_3_links_network.node[0].content_store 	decision_no[0] 	142197
scalar one_cache_scenario_3_links_network.node[0].content_store 	decision_ratio[0] 	0.0040901800659752
scalar one_cache_scenario_3_links_network.node[0].content_store 	correction_factor[0] 	0.00029644561705155
scalar one_cache_scenario_3_links_network.node[0].content_store 	xi[0] 	2
scalar one_cache_scenario_3_links_network.node[1].core_layer 	interests[1] 	72759
scalar one_cache_scenario_3_links_network.node[1].core_layer 	data[1] 	72759
scalar one_cache_scenario_3_links_network.node[1].content_store 	p_hit[1] 	0
scalar one_cache_scenario_3_links_network.node[1].content_store 	hits[1] 	0
scalar one_cache_scenario_3_links_network.node[1].content_store 	misses[1] 	72759
scalar one_cache_scenario_3_links_network.node[1].content_store 	decision_yes[1] 	0
scalar one_cache_scenario_3_links_network.node[1].content_store 	decision_no[1] 	72759
scalar one_cache_scenario_3_links_network.node[1].content_store 	decision_ratio[1] 	0
scalar one_cache_scenario_3_links_network.node[2].core_layer 	interests[2] 	48357
scalar one_cache_scenario_3_links_network.node[2].core_layer 	data[2] 	48357
scalar one_cache_scenario_3_links_network.node[2].content_store 	p_hit[2] 	0
scalar one_cache_scenario_3_links_network.node[2].content_store 	hits[2] 	0
scalar one_cache_scenario_3_links_network.node[2].content_store 	misses[2] 	48357
scalar one_cache_scenario_3_links_network.node[2].content_store 	decision_yes[2] 	0
scalar one_cache_scenario_3_links_network.node[2].content_store 	decision_no[2] 	48357
scalar one_cache_scenario_3_links_network.node[2].content_store 	decision_ratio[2] 	0
scalar one_cache_scenario_3_links_network.node[3].core_layer 	interests[3] 	21665
scalar one_cache_scenario_3_links_network.node[3].core_layer 	data[3] 	21665
scalar one_cache_scenario_3_links_network.node[3].content_store 	p_hit[3] 	0
scalar one_cache_scenario_3_links_network.node[3].content_store 	hits[3] 	0
scalar one_cache_scenario_3_links_network.node[3].content_store 	misses[3] 	21665
scalar one_cache_scenario_3_links_network.node[3].content_store 	decision_yes[3] 	0
scalar one_cache_scenario_3_links_network.node[3].content_store 	decision_no[3] 	21665
scalar one_cache_scenario_3_links_network.node[3].content_store 	decision_ratio[3] 	0
scalar one_cache_scenario_3_links_network.node[4].core_layer 	interests[4] 	72759
scalar one_cache_scenario_3_links_network.node[4].core_layer 	repo_load[4] 	72759
scalar one_cache_scenario_3_links_network.node[4].core_layer 	data[4] 	0
scalar one_cache_scenario_3_links_network.node[4].content_store 	p_hit[4] 	0
scalar one_cache_scenario_3_links_network.node[4].content_store 	hits[4] 	0
scalar one_cache_scenario_3_links_network.node[4].content_store 	misses[4] 	72759
scalar one_cache_scenario_3_links_network.node[4].content_store 	decision_yes[4] 	0
scalar one_cache_scenario_3_links_network.node[4].content_store 	decision_no[4] 	72759
scalar one_cache_scenario_3_links_network.node[4].content_store 	decision_ratio[4] 	0
scalar one_cache_scenario_3_links_network.node[5].core_layer 	interests[5] 	48357
scalar one_cache_scenario_3_links_network.node[5].core_layer 	repo_load[5] 	48357
scalar one_cache_scenario_3_links_network.node[5].core_layer 	data[5] 	0
scalar one_cache_scenario_3_links_network.node[5].content_store 	p_hit[5] 	0
scalar one_cache_scenario_3_links_network.node[5].content_store 	hits[5] 	0
scalar one_cache_scenario_3_links_network.node[5].content_store 	misses[5] 	48357
scalar one_cache_scenario_3_links_network.node[5].content_store 	decision_yes[5] 	0
scalar one_cache_scenario_3_links_network.node[5].content_store 	decision_no[5] 	48357
scalar one_cache_scenario_3_links_network.node[5].content_store 	decision_ratio[5] 	0
scalar one_cache_scenario_3_links_network.node[6].core_layer 	interests[6] 	21665
scalar one_cache_scenario_3_links_network.node[6].core_layer 	repo_load[6] 	21665
scalar one_cache_scenario_3_links_network.node[6].core_layer 	data[6] 	0
scalar one_cache_scenario_3_links_network.node[6].content_store 	p_hit[6] 	0
scalar one_cache_scenario_3_links_network.node[6].content_store 	hits[6] 	0
scalar one_cache_scenario_3_links_network.node[6].content_store 	misses[6] 	21665
scalar one_cache_scenario_3_links_network.node[6].content_store 	decision_yes[6] 	0
scalar one_cache_scenario_3_links_network.node[6].content_store 	decision_no[6] 	21665
scalar one_cache_scenario_3_links_network.node[6].content_store 	decision_ratio[6] 	0
scalar one_cache_scenario_3_links_network.client[0] 	hdistance[0] 	1.5889183790431
scalar one_cache_scenario_3_links_network.client[0] 	downloads[0] 	179721
scalar one_cache_scenario_3_links_network.client[0] 	avg_time[0] 	0
scalar one_cache_scenario_3_links_network.client[0] 	interests_sent[0] 	179721
