version 2
run General-2-20140902-15:22:40-27541
attr D lce
attr F nrr
attr R lru
attr a 1
attr configname General
attr csize 1e3
attr ctlg 1e5
attr datetime 20140902-15:22:40
attr experiment General
attr inifile omnetpp.ini
attr iterationvars "$net=abilene_cost, $rep=11, $priceratiovalue=10, $weights=0.333_0.333_0.334, $lambda=100, $a=1, $ctlg=1e5, $F=nrr, $ttl=10, $D=lce, $xi=1, $R=lru, $csize=1e3, $pricebits=0, $window=60, $variance=0.05, $mytime=1800"
attr iterationvars2 "$net=abilene_cost, $rep=11, $priceratiovalue=10, $weights=0.333_0.333_0.334, $lambda=100, $a=1, $ctlg=1e5, $F=nrr, $ttl=10, $D=lce, $xi=1, $R=lru, $csize=1e3, $pricebits=0, $window=60, $variance=0.05, $mytime=1800, $repetition=0"
attr lambda 100
attr measurement "$net=abilene_cost, $rep=11, $priceratiovalue=10, $weights=0.333_0.333_0.334, $lambda=100, $a=1, $ctlg=1e5, $F=nrr, $ttl=10, $D=lce, $xi=1, $R=lru, $csize=1e3, $pricebits=0, $window=60, $variance=0.05, $mytime=1800"
attr mytime 1800
attr net abilene_cost
attr network networks.${net=abilene_cost}_network
attr pricebits 0
attr priceratiovalue 10
attr processid 27541
attr rep 11
attr repetition 0
attr replication #0
attr resultdir results
attr runnumber 2
attr seedset 11
attr ttl 10
attr variance 0.05
attr weights 0.333_0.333_0.334
attr window 60
attr xi 1

scalar . 	a 	1
scalar . 	csize 	1e3
scalar . 	ctlg 	1e5
scalar . 	lambda 	100
scalar . 	mytime 	1800
scalar . 	pricebits 	0
scalar . 	priceratiovalue 	10
scalar . 	rep 	11
scalar . 	ttl 	10
scalar . 	variance 	0.05
scalar . 	window 	60
scalar . 	xi 	1
scalar abilene_cost_network.content_distribution 	repo-0 	1
scalar abilene_cost_network.content_distribution 	repo-1 	10
scalar abilene_cost_network.content_distribution 	repo-2 	9
scalar abilene_cost_network.content_distribution 	client-0 	4
scalar abilene_cost_network.content_distribution 	client-1 	3
scalar abilene_cost_network.content_distribution 	client-2 	5
scalar abilene_cost_network.content_distribution 	repo-0_card 	33091
scalar abilene_cost_network.content_distribution 	repo-0_price 	10
scalar abilene_cost_network.content_distribution 	repo-1_card 	33552
scalar abilene_cost_network.content_distribution 	repo-1_price 	1
scalar abilene_cost_network.content_distribution 	repo-2_card 	33357
scalar abilene_cost_network.content_distribution 	repo-2_price 	0
scalar abilene_cost_network.statistics 	repo_popularity[0] 	0.34138276193578
scalar abilene_cost_network.statistics 	repo_popularity[1] 	0.30435585390103
scalar abilene_cost_network.statistics 	repo_popularity[2] 	0.3542613841632
scalar abilene_cost_network.statistics 	stabilization_time 	36060
scalar abilene_cost_network.statistics 	p_hit 	0.11687348883614
scalar abilene_cost_network.statistics 	interests 	164194.63636364
scalar abilene_cost_network.statistics 	data 	115177.90909091
scalar abilene_cost_network.statistics 	hdistance 	2.9617620868308
scalar abilene_cost_network.statistics 	avg_time 	0.014476969105
scalar abilene_cost_network.statistics 	downloads 	538701
scalar abilene_cost_network.statistics 	total_cost 	1252740
scalar abilene_cost_network.statistics 	total_replicas 	100000
scalar abilene_cost_network.statistics 	inner_hit 	0.39293782636379
scalar abilene_cost_network.statistics 	interests_sent 	539184
scalar abilene_cost_network.node[0].core_layer 	interests[0] 	0
scalar abilene_cost_network.node[0].core_layer 	data[0] 	0
scalar abilene_cost_network.node[0].core_layer 	repo_int[0] 	327025
scalar abilene_cost_network.node[0].content_store 	p_hit[0] 	-nan
scalar abilene_cost_network.node[0].content_store 	hits[0] 	0
scalar abilene_cost_network.node[0].content_store 	misses[0] 	0
scalar abilene_cost_network.node[0].content_store 	decision_yes[0] 	0
scalar abilene_cost_network.node[0].content_store 	decision_no[0] 	0
scalar abilene_cost_network.node[0].content_store 	decision_ratio[0] 	0
scalar abilene_cost_network.node[1].core_layer 	interests[1] 	231192
scalar abilene_cost_network.node[1].core_layer 	repo_load[1] 	114224
scalar abilene_cost_network.node[1].core_layer 	data[1] 	115803
scalar abilene_cost_network.node[1].content_store 	p_hit[1] 	0.005034776289837
scalar abilene_cost_network.node[1].content_store 	hits[1] 	1164
scalar abilene_cost_network.node[1].content_store 	misses[1] 	230028
scalar abilene_cost_network.node[1].content_store 	decision_yes[1] 	230027
scalar abilene_cost_network.node[1].content_store 	decision_no[1] 	0
scalar abilene_cost_network.node[1].content_store 	decision_ratio[1] 	1
scalar abilene_cost_network.node[2].core_layer 	interests[2] 	302722
scalar abilene_cost_network.node[2].core_layer 	data[2] 	301864
scalar abilene_cost_network.node[2].content_store 	p_hit[2] 	0.0028342836001348
scalar abilene_cost_network.node[2].content_store 	hits[2] 	858
scalar abilene_cost_network.node[2].content_store 	misses[2] 	301864
scalar abilene_cost_network.node[2].content_store 	decision_yes[2] 	301864
scalar abilene_cost_network.node[2].content_store 	decision_no[2] 	0
scalar abilene_cost_network.node[2].content_store 	decision_ratio[2] 	1
scalar abilene_cost_network.node[3].core_layer 	interests[3] 	378064
scalar abilene_cost_network.node[3].core_layer 	data[3] 	330455
scalar abilene_cost_network.node[3].content_store 	p_hit[3] 	0.12468523847814
scalar abilene_cost_network.node[3].content_store 	hits[3] 	47139
scalar abilene_cost_network.node[3].content_store 	misses[3] 	330925
scalar abilene_cost_network.node[3].content_store 	decision_yes[3] 	330435
scalar abilene_cost_network.node[3].content_store 	decision_no[3] 	0
scalar abilene_cost_network.node[3].content_store 	decision_ratio[3] 	1
scalar abilene_cost_network.node[4].core_layer 	interests[4] 	280989
scalar abilene_cost_network.node[4].core_layer 	data[4] 	213313
scalar abilene_cost_network.node[4].content_store 	p_hit[4] 	0.23953606724818
scalar abilene_cost_network.node[4].content_store 	hits[4] 	67307
scalar abilene_cost_network.node[4].content_store 	misses[4] 	213682
scalar abilene_cost_network.node[4].content_store 	decision_yes[4] 	213284
scalar abilene_cost_network.node[4].content_store 	decision_no[4] 	0
scalar abilene_cost_network.node[4].content_store 	decision_ratio[4] 	1
scalar abilene_cost_network.node[5].core_layer 	interests[5] 	193996
scalar abilene_cost_network.node[5].core_layer 	data[5] 	129719
scalar abilene_cost_network.node[5].content_store 	p_hit[5] 	0.33049650508258
scalar abilene_cost_network.node[5].content_store 	hits[5] 	64115
scalar abilene_cost_network.node[5].content_store 	misses[5] 	129881
scalar abilene_cost_network.node[5].content_store 	decision_yes[5] 	129719
scalar abilene_cost_network.node[5].content_store 	decision_no[5] 	0
scalar abilene_cost_network.node[5].content_store 	decision_ratio[5] 	1
scalar abilene_cost_network.node[6].core_layer 	interests[6] 	45484
scalar abilene_cost_network.node[6].core_layer 	data[6] 	36897
scalar abilene_cost_network.node[6].content_store 	p_hit[6] 	0.18881364875561
scalar abilene_cost_network.node[6].content_store 	hits[6] 	8588
scalar abilene_cost_network.node[6].content_store 	misses[6] 	36896
scalar abilene_cost_network.node[6].content_store 	decision_yes[6] 	36897
scalar abilene_cost_network.node[6].content_store 	decision_no[6] 	0
scalar abilene_cost_network.node[6].content_store 	decision_ratio[6] 	1
scalar abilene_cost_network.node[7].core_layer 	interests[7] 	49391
scalar abilene_cost_network.node[7].core_layer 	data[7] 	36529
scalar abilene_cost_network.node[7].content_store 	p_hit[7] 	0.26043206252151
scalar abilene_cost_network.node[7].content_store 	hits[7] 	12863
scalar abilene_cost_network.node[7].content_store 	misses[7] 	36528
scalar abilene_cost_network.node[7].content_store 	decision_yes[7] 	36525
scalar abilene_cost_network.node[7].content_store 	decision_no[7] 	0
scalar abilene_cost_network.node[7].content_store 	decision_ratio[7] 	1
scalar abilene_cost_network.node[8].core_layer 	interests[8] 	106124
scalar abilene_cost_network.node[8].core_layer 	data[8] 	102377
scalar abilene_cost_network.node[8].content_store 	p_hit[8] 	0.034657570389356
scalar abilene_cost_network.node[8].content_store 	hits[8] 	3678
scalar abilene_cost_network.node[8].content_store 	misses[8] 	102446
scalar abilene_cost_network.node[8].content_store 	decision_yes[8] 	102377
scalar abilene_cost_network.node[8].content_store 	decision_no[8] 	0
scalar abilene_cost_network.node[8].content_store 	decision_ratio[8] 	1
scalar abilene_cost_network.node[9].core_layer 	interests[9] 	102376
scalar abilene_cost_network.node[9].core_layer 	repo_load[9] 	102301
scalar abilene_cost_network.node[9].core_layer 	data[9] 	0
scalar abilene_cost_network.node[9].content_store 	p_hit[9] 	0.00073259357661952
scalar abilene_cost_network.node[9].content_store 	hits[9] 	75
scalar abilene_cost_network.node[9].content_store 	misses[9] 	102301
scalar abilene_cost_network.node[9].content_store 	decision_yes[9] 	102301
scalar abilene_cost_network.node[9].content_store 	decision_no[9] 	0
scalar abilene_cost_network.node[9].content_store 	decision_ratio[9] 	1
scalar abilene_cost_network.node[10].core_layer 	interests[10] 	115803
scalar abilene_cost_network.node[10].core_layer 	repo_load[10] 	110500
scalar abilene_cost_network.node[10].core_layer 	data[10] 	0
scalar abilene_cost_network.node[10].content_store 	p_hit[10] 	0.045793286875124
scalar abilene_cost_network.node[10].content_store 	hits[10] 	5303
scalar abilene_cost_network.node[10].content_store 	misses[10] 	110500
scalar abilene_cost_network.node[10].content_store 	decision_yes[10] 	110500
scalar abilene_cost_network.node[10].content_store 	decision_no[10] 	0
scalar abilene_cost_network.node[10].content_store 	decision_ratio[10] 	1
scalar abilene_cost_network.client[3] 	hdistance[3] 	2.4372380494674
scalar abilene_cost_network.client[3] 	downloads[3] 	178946
scalar abilene_cost_network.client[3] 	avg_time[3] 	0.012547932977
scalar abilene_cost_network.client[3] 	interests_sent[3] 	179100
scalar abilene_cost_network.client[4] 	hdistance[4] 	3.0191934320741
scalar abilene_cost_network.client[4] 	downloads[4] 	180270
scalar abilene_cost_network.client[4] 	avg_time[4] 	0.01365357893
scalar abilene_cost_network.client[4] 	interests_sent[4] 	180439
scalar abilene_cost_network.client[5] 	hdistance[5] 	3.4288547789509
scalar abilene_cost_network.client[5] 	downloads[5] 	179485
scalar abilene_cost_network.client[5] 	avg_time[5] 	0.017229395408
scalar abilene_cost_network.client[5] 	interests_sent[5] 	179645
