version 2
run General-18-20140902-16:40:36-17327
attr D lce
attr F nrr
attr R lru
attr a 1
attr configname General
attr csize 1e3
attr ctlg 1e5
attr datetime 20140902-16:40:36
attr experiment General
attr inifile omnetpp.ini
attr iterationvars "$net=abilene_cost, $rep=10, $priceratiovalue=10, $weights=0.333_0.333_0.334, $lambda=100, $a=1, $ctlg=1e5, $F=nrr, $ttl=10, $D=lce, $xi=1, $R=lru, $csize=1e3, $pricebits=0, $window=60, $variance=0.05, $mytime=1800"
attr iterationvars2 "$net=abilene_cost, $rep=10, $priceratiovalue=10, $weights=0.333_0.333_0.334, $lambda=100, $a=1, $ctlg=1e5, $F=nrr, $ttl=10, $D=lce, $xi=1, $R=lru, $csize=1e3, $pricebits=0, $window=60, $variance=0.05, $mytime=1800, $repetition=0"
attr lambda 100
attr measurement "$net=abilene_cost, $rep=10, $priceratiovalue=10, $weights=0.333_0.333_0.334, $lambda=100, $a=1, $ctlg=1e5, $F=nrr, $ttl=10, $D=lce, $xi=1, $R=lru, $csize=1e3, $pricebits=0, $window=60, $variance=0.05, $mytime=1800"
attr mytime 1800
attr net abilene_cost
attr network networks.${net=abilene_cost}_network
attr pricebits 0
attr priceratiovalue 10
attr processid 17327
attr rep 10
attr repetition 0
attr replication #0
attr resultdir results
attr runnumber 18
attr seedset 10
attr ttl 10
attr variance 0.05
attr weights 0.333_0.333_0.334
attr window 60
attr xi 1

scalar . 	a 	1
scalar . 	csize 	1e3
scalar . 	ctlg 	1e5
scalar . 	lambda 	100
scalar . 	mytime 	1800
scalar . 	pricebits 	0
scalar . 	priceratiovalue 	10
scalar . 	rep 	10
scalar . 	ttl 	10
scalar . 	variance 	0.05
scalar . 	window 	60
scalar . 	xi 	1
scalar abilene_cost_network.content_distribution 	repo-0 	2
scalar abilene_cost_network.content_distribution 	repo-1 	7
scalar abilene_cost_network.content_distribution 	repo-2 	0
scalar abilene_cost_network.content_distribution 	client-0 	7
scalar abilene_cost_network.content_distribution 	client-1 	10
scalar abilene_cost_network.content_distribution 	client-2 	6
scalar abilene_cost_network.content_distribution 	repo-0_card 	33054
scalar abilene_cost_network.content_distribution 	repo-0_price 	1
scalar abilene_cost_network.content_distribution 	repo-1_card 	33533
scalar abilene_cost_network.content_distribution 	repo-1_price 	0
scalar abilene_cost_network.content_distribution 	repo-2_card 	33413
scalar abilene_cost_network.content_distribution 	repo-2_price 	10
scalar abilene_cost_network.statistics 	repo_popularity[0] 	0.39235916228158
scalar abilene_cost_network.statistics 	repo_popularity[1] 	0.27346308917966
scalar abilene_cost_network.statistics 	repo_popularity[2] 	0.33417774853877
scalar abilene_cost_network.statistics 	stabilization_time 	36060
scalar abilene_cost_network.statistics 	p_hit 	0.14370265835437
scalar abilene_cost_network.statistics 	interests 	125874.18181818
scalar abilene_cost_network.statistics 	data 	76751
scalar abilene_cost_network.statistics 	hdistance 	2.1963529134663
scalar abilene_cost_network.statistics 	avg_time 	0.010323306165
scalar abilene_cost_network.statistics 	downloads 	539887
scalar abilene_cost_network.statistics 	total_cost 	1151149
scalar abilene_cost_network.statistics 	total_replicas 	100000
scalar abilene_cost_network.statistics 	inner_hit 	0.36877902227688
scalar abilene_cost_network.statistics 	interests_sent 	540359
scalar abilene_cost_network.node[0].core_layer 	interests[0] 	105988
scalar abilene_cost_network.node[0].core_layer 	repo_load[0] 	103858
scalar abilene_cost_network.node[0].core_layer 	data[0] 	0
scalar abilene_cost_network.node[0].core_layer 	repo_int[0] 	340788
scalar abilene_cost_network.node[0].content_store 	p_hit[0] 	0.020096614711099
scalar abilene_cost_network.node[0].content_store 	hits[0] 	2130
scalar abilene_cost_network.node[0].content_store 	misses[0] 	103858
scalar abilene_cost_network.node[0].content_store 	decision_yes[0] 	103858
scalar abilene_cost_network.node[0].content_store 	decision_no[0] 	0
scalar abilene_cost_network.node[0].content_store 	decision_ratio[0] 	1
scalar abilene_cost_network.node[1].core_layer 	interests[1] 	111879
scalar abilene_cost_network.node[1].core_layer 	data[1] 	109330
scalar abilene_cost_network.node[1].content_store 	p_hit[1] 	0.022792481162685
scalar abilene_cost_network.node[1].content_store 	hits[1] 	2550
scalar abilene_cost_network.node[1].content_store 	misses[1] 	109329
scalar abilene_cost_network.node[1].content_store 	decision_yes[1] 	109330
scalar abilene_cost_network.node[1].content_store 	decision_no[1] 	0
scalar abilene_cost_network.node[1].content_store 	decision_ratio[1] 	1
scalar abilene_cost_network.node[2].core_layer 	interests[2] 	186899
scalar abilene_cost_network.node[2].core_layer 	repo_load[2] 	112569
scalar abilene_cost_network.node[2].core_layer 	data[2] 	70183
scalar abilene_cost_network.node[2].content_store 	p_hit[2] 	0.022193805210301
scalar abilene_cost_network.node[2].content_store 	hits[2] 	4148
scalar abilene_cost_network.node[2].content_store 	misses[2] 	182751
scalar abilene_cost_network.node[2].content_store 	decision_yes[2] 	182752
scalar abilene_cost_network.node[2].content_store 	decision_no[2] 	0
scalar abilene_cost_network.node[2].content_store 	decision_ratio[2] 	1
scalar abilene_cost_network.node[3].core_layer 	interests[3] 	149990
scalar abilene_cost_network.node[3].core_layer 	data[3] 	146902
scalar abilene_cost_network.node[3].content_store 	p_hit[3] 	0.020594706313754
scalar abilene_cost_network.node[3].content_store 	hits[3] 	3089
scalar abilene_cost_network.node[3].content_store 	misses[3] 	146901
scalar abilene_cost_network.node[3].content_store 	decision_yes[3] 	146902
scalar abilene_cost_network.node[3].content_store 	decision_no[3] 	0
scalar abilene_cost_network.node[3].content_store 	decision_ratio[3] 	1
scalar abilene_cost_network.node[4].core_layer 	interests[4] 	0
scalar abilene_cost_network.node[4].core_layer 	data[4] 	0
scalar abilene_cost_network.node[4].content_store 	p_hit[4] 	-nan
scalar abilene_cost_network.node[4].content_store 	hits[4] 	0
scalar abilene_cost_network.node[4].content_store 	misses[4] 	0
scalar abilene_cost_network.node[4].content_store 	decision_yes[4] 	0
scalar abilene_cost_network.node[4].content_store 	decision_no[4] 	0
scalar abilene_cost_network.node[4].content_store 	decision_ratio[4] 	0
scalar abilene_cost_network.node[5].core_layer 	interests[5] 	0
scalar abilene_cost_network.node[5].core_layer 	data[5] 	0
scalar abilene_cost_network.node[5].content_store 	p_hit[5] 	-nan
scalar abilene_cost_network.node[5].content_store 	hits[5] 	0
scalar abilene_cost_network.node[5].content_store 	misses[5] 	0
scalar abilene_cost_network.node[5].content_store 	decision_yes[5] 	0
scalar abilene_cost_network.node[5].content_store 	decision_no[5] 	0
scalar abilene_cost_network.node[5].content_store 	decision_ratio[5] 	0
scalar abilene_cost_network.node[6].core_layer 	interests[6] 	186827
scalar abilene_cost_network.node[6].core_layer 	data[6] 	128201
scalar abilene_cost_network.node[6].content_store 	p_hit[6] 	0.31300615007467
scalar abilene_cost_network.node[6].content_store 	hits[6] 	58478
scalar abilene_cost_network.node[6].content_store 	misses[6] 	128349
scalar abilene_cost_network.node[6].content_store 	decision_yes[6] 	128201
scalar abilene_cost_network.node[6].content_store 	decision_no[6] 	0
scalar abilene_cost_network.node[6].content_store 	decision_ratio[6] 	1
scalar abilene_cost_network.node[7].core_layer 	interests[7] 	348540
scalar abilene_cost_network.node[7].core_layer 	repo_load[7] 	124361
scalar abilene_cost_network.node[7].core_layer 	data[7] 	172422
scalar abilene_cost_network.node[7].content_store 	p_hit[7] 	0.14762724507947
scalar abilene_cost_network.node[7].content_store 	hits[7] 	51454
scalar abilene_cost_network.node[7].content_store 	misses[7] 	297086
scalar abilene_cost_network.node[7].content_store 	decision_yes[7] 	296769
scalar abilene_cost_network.node[7].content_store 	decision_no[7] 	0
scalar abilene_cost_network.node[7].content_store 	decision_ratio[7] 	1
scalar abilene_cost_network.node[8].core_layer 	interests[8] 	57311
scalar abilene_cost_network.node[8].core_layer 	data[8] 	42962
scalar abilene_cost_network.node[8].content_store 	p_hit[8] 	0.25037078396817
scalar abilene_cost_network.node[8].content_store 	hits[8] 	14349
scalar abilene_cost_network.node[8].content_store 	misses[8] 	42962
scalar abilene_cost_network.node[8].content_store 	decision_yes[8] 	42959
scalar abilene_cost_network.node[8].content_store 	decision_no[8] 	0
scalar abilene_cost_network.node[8].content_store 	decision_ratio[8] 	1
scalar abilene_cost_network.node[9].core_layer 	interests[9] 	54392
scalar abilene_cost_network.node[9].core_layer 	data[9] 	44808
scalar abilene_cost_network.node[9].content_store 	p_hit[9] 	0.17620238270334
scalar abilene_cost_network.node[9].content_store 	hits[9] 	9584
scalar abilene_cost_network.node[9].content_store 	misses[9] 	44808
scalar abilene_cost_network.node[9].content_store 	decision_yes[9] 	44808
scalar abilene_cost_network.node[9].content_store 	decision_no[9] 	0
scalar abilene_cost_network.node[9].content_store 	decision_ratio[9] 	1
scalar abilene_cost_network.node[10].core_layer 	interests[10] 	182790
scalar abilene_cost_network.node[10].core_layer 	data[10] 	129453
scalar abilene_cost_network.node[10].content_store 	p_hit[10] 	0.29099513102467
scalar abilene_cost_network.node[10].content_store 	hits[10] 	53191
scalar abilene_cost_network.node[10].content_store 	misses[10] 	129599
scalar abilene_cost_network.node[10].content_store 	decision_yes[10] 	129452
scalar abilene_cost_network.node[10].content_store 	decision_no[10] 	0
scalar abilene_cost_network.node[10].content_store 	decision_ratio[10] 	1
scalar abilene_cost_network.client[6] 	hdistance[6] 	2.6138013717727
scalar abilene_cost_network.client[6] 	downloads[6] 	179330
scalar abilene_cost_network.client[6] 	avg_time[6] 	0.011778741003
scalar abilene_cost_network.client[6] 	interests_sent[6] 	179478
scalar abilene_cost_network.client[7] 	hdistance[7] 	1.963189504244
scalar abilene_cost_network.client[7] 	downloads[7] 	180492
scalar abilene_cost_network.client[7] 	avg_time[7] 	0.007928260803
scalar abilene_cost_network.client[7] 	interests_sent[7] 	180670
scalar abilene_cost_network.client[10] 	hdistance[10] 	2.0120678643823
scalar abilene_cost_network.client[10] 	downloads[10] 	180065
scalar abilene_cost_network.client[10] 	avg_time[10] 	0.011262916691
scalar abilene_cost_network.client[10] 	interests_sent[10] 	180211
