version 2
run General-18-20140902-15:52:35-27570
attr D lce
attr F nrr
attr R lru
attr a 1
attr configname General
attr csize 1e3
attr ctlg 1e5
attr datetime 20140902-15:52:35
attr experiment General
attr inifile omnetpp.ini
attr iterationvars "$net=abilene_cost, $rep=15, $priceratiovalue=10, $weights=0.333_0.333_0.334, $lambda=100, $a=1, $ctlg=1e5, $F=nrr, $ttl=10, $D=lce, $xi=1, $R=lru, $csize=1e3, $pricebits=0, $window=60, $variance=0.05, $mytime=1800"
attr iterationvars2 "$net=abilene_cost, $rep=15, $priceratiovalue=10, $weights=0.333_0.333_0.334, $lambda=100, $a=1, $ctlg=1e5, $F=nrr, $ttl=10, $D=lce, $xi=1, $R=lru, $csize=1e3, $pricebits=0, $window=60, $variance=0.05, $mytime=1800, $repetition=0"
attr lambda 100
attr measurement "$net=abilene_cost, $rep=15, $priceratiovalue=10, $weights=0.333_0.333_0.334, $lambda=100, $a=1, $ctlg=1e5, $F=nrr, $ttl=10, $D=lce, $xi=1, $R=lru, $csize=1e3, $pricebits=0, $window=60, $variance=0.05, $mytime=1800"
attr mytime 1800
attr net abilene_cost
attr network networks.${net=abilene_cost}_network
attr pricebits 0
attr priceratiovalue 10
attr processid 27570
attr rep 15
attr repetition 0
attr replication #0
attr resultdir results
attr runnumber 18
attr seedset 15
attr ttl 10
attr variance 0.05
attr weights 0.333_0.333_0.334
attr window 60
attr xi 1

scalar . 	a 	1
scalar . 	csize 	1e3
scalar . 	ctlg 	1e5
scalar . 	lambda 	100
scalar . 	mytime 	1800
scalar . 	pricebits 	0
scalar . 	priceratiovalue 	10
scalar . 	rep 	15
scalar . 	ttl 	10
scalar . 	variance 	0.05
scalar . 	window 	60
scalar . 	xi 	1
scalar abilene_cost_network.content_distribution 	repo-0 	5
scalar abilene_cost_network.content_distribution 	repo-1 	8
scalar abilene_cost_network.content_distribution 	repo-2 	4
scalar abilene_cost_network.content_distribution 	client-0 	3
scalar abilene_cost_network.content_distribution 	client-1 	2
scalar abilene_cost_network.content_distribution 	client-2 	0
scalar abilene_cost_network.content_distribution 	repo-0_card 	33352
scalar abilene_cost_network.content_distribution 	repo-0_price 	1
scalar abilene_cost_network.content_distribution 	repo-1_card 	33288
scalar abilene_cost_network.content_distribution 	repo-1_price 	0
scalar abilene_cost_network.content_distribution 	repo-2_card 	33360
scalar abilene_cost_network.content_distribution 	repo-2_price 	10
scalar abilene_cost_network.statistics 	repo_popularity[0] 	0.43052598680441
scalar abilene_cost_network.statistics 	repo_popularity[1] 	0.30869775185449
scalar abilene_cost_network.statistics 	repo_popularity[2] 	0.26077626134111
scalar abilene_cost_network.statistics 	stabilization_time 	36060
scalar abilene_cost_network.statistics 	p_hit 	0.13030396523399
scalar abilene_cost_network.statistics 	interests 	137898.54545455
scalar abilene_cost_network.statistics 	data 	88857.272727273
scalar abilene_cost_network.statistics 	hdistance 	2.4483175474531
scalar abilene_cost_network.statistics 	avg_time 	0.010326211056
scalar abilene_cost_network.statistics 	downloads 	538809
scalar abilene_cost_network.statistics 	total_cost 	1255173
scalar abilene_cost_network.statistics 	total_replicas 	100000
scalar abilene_cost_network.statistics 	inner_hit 	0.36749200551587
scalar abilene_cost_network.statistics 	interests_sent 	539446
scalar abilene_cost_network.node[0].core_layer 	interests[0] 	183177
scalar abilene_cost_network.node[0].core_layer 	data[0] 	128450
scalar abilene_cost_network.node[0].core_layer 	repo_int[0] 	340801
scalar abilene_cost_network.node[0].content_store 	p_hit[0] 	0.29742817056727
scalar abilene_cost_network.node[0].content_store 	hits[0] 	54482
scalar abilene_cost_network.node[0].content_store 	misses[0] 	128695
scalar abilene_cost_network.node[0].content_store 	decision_yes[0] 	128450
scalar abilene_cost_network.node[0].content_store 	decision_no[0] 	0
scalar abilene_cost_network.node[0].content_store 	decision_ratio[0] 	1
scalar abilene_cost_network.node[1].core_layer 	interests[1] 	144575
scalar abilene_cost_network.node[1].core_layer 	data[1] 	129600
scalar abilene_cost_network.node[1].content_store 	p_hit[1] 	0.10355870655369
scalar abilene_cost_network.node[1].content_store 	hits[1] 	14972
scalar abilene_cost_network.node[1].content_store 	misses[1] 	129603
scalar abilene_cost_network.node[1].content_store 	decision_yes[1] 	129564
scalar abilene_cost_network.node[1].content_store 	decision_no[1] 	0
scalar abilene_cost_network.node[1].content_store 	decision_ratio[1] 	1
scalar abilene_cost_network.node[2].core_layer 	interests[2] 	360325
scalar abilene_cost_network.node[2].core_layer 	data[2] 	300434
scalar abilene_cost_network.node[2].content_store 	p_hit[2] 	0.16492055782974
scalar abilene_cost_network.node[2].content_store 	hits[2] 	59425
scalar abilene_cost_network.node[2].content_store 	misses[2] 	300900
scalar abilene_cost_network.node[2].content_store 	decision_yes[2] 	300317
scalar abilene_cost_network.node[2].content_store 	decision_no[2] 	0
scalar abilene_cost_network.node[2].content_store 	decision_ratio[2] 	1
scalar abilene_cost_network.node[3].core_layer 	interests[3] 	346522
scalar abilene_cost_network.node[3].core_layer 	data[3] 	295067
scalar abilene_cost_network.node[3].content_store 	p_hit[3] 	0.147670277789
scalar abilene_cost_network.node[3].content_store 	hits[3] 	51171
scalar abilene_cost_network.node[3].content_store 	misses[3] 	295351
scalar abilene_cost_network.node[3].content_store 	decision_yes[3] 	295013
scalar abilene_cost_network.node[3].content_store 	decision_no[3] 	0
scalar abilene_cost_network.node[3].content_store 	decision_ratio[3] 	1
scalar abilene_cost_network.node[4].core_layer 	interests[4] 	240701
scalar abilene_cost_network.node[4].core_layer 	repo_load[4] 	113781
scalar abilene_cost_network.node[4].core_layer 	data[4] 	123879
scalar abilene_cost_network.node[4].content_store 	p_hit[4] 	0.012638086256393
scalar abilene_cost_network.node[4].content_store 	hits[4] 	3042
scalar abilene_cost_network.node[4].content_store 	misses[4] 	237659
scalar abilene_cost_network.node[4].content_store 	decision_yes[4] 	237660
scalar abilene_cost_network.node[4].content_store 	decision_no[4] 	0
scalar abilene_cost_network.node[4].content_store 	decision_ratio[4] 	1
scalar abilene_cost_network.node[5].core_layer 	interests[5] 	123879
scalar abilene_cost_network.node[5].core_layer 	repo_load[5] 	117363
scalar abilene_cost_network.node[5].core_layer 	data[5] 	0
scalar abilene_cost_network.node[5].content_store 	p_hit[5] 	0.05259971423728
scalar abilene_cost_network.node[5].content_store 	hits[5] 	6516
scalar abilene_cost_network.node[5].content_store 	misses[5] 	117363
scalar abilene_cost_network.node[5].content_store 	decision_yes[5] 	117363
scalar abilene_cost_network.node[5].content_store 	decision_no[5] 	0
scalar abilene_cost_network.node[5].content_store 	decision_ratio[5] 	1
scalar abilene_cost_network.node[6].core_layer 	interests[6] 	0
scalar abilene_cost_network.node[6].core_layer 	data[6] 	0
scalar abilene_cost_network.node[6].content_store 	p_hit[6] 	-nan
scalar abilene_cost_network.node[6].content_store 	hits[6] 	0
scalar abilene_cost_network.node[6].content_store 	misses[6] 	0
scalar abilene_cost_network.node[6].content_store 	decision_yes[6] 	0
scalar abilene_cost_network.node[6].content_store 	decision_no[6] 	0
scalar abilene_cost_network.node[6].content_store 	decision_ratio[6] 	0
scalar abilene_cost_network.node[7].core_layer 	interests[7] 	0
scalar abilene_cost_network.node[7].core_layer 	data[7] 	0
scalar abilene_cost_network.node[7].content_store 	p_hit[7] 	-nan
scalar abilene_cost_network.node[7].content_store 	hits[7] 	0
scalar abilene_cost_network.node[7].content_store 	misses[7] 	0
scalar abilene_cost_network.node[7].content_store 	decision_yes[7] 	0
scalar abilene_cost_network.node[7].content_store 	decision_no[7] 	0
scalar abilene_cost_network.node[7].content_store 	decision_ratio[7] 	0
scalar abilene_cost_network.node[8].core_layer 	interests[8] 	117705
scalar abilene_cost_network.node[8].core_layer 	repo_load[8] 	109657
scalar abilene_cost_network.node[8].core_layer 	data[8] 	0
scalar abilene_cost_network.node[8].content_store 	p_hit[8] 	0.06837432564462
scalar abilene_cost_network.node[8].content_store 	hits[8] 	8048
scalar abilene_cost_network.node[8].content_store 	misses[8] 	109657
scalar abilene_cost_network.node[8].content_store 	decision_yes[8] 	109657
scalar abilene_cost_network.node[8].content_store 	decision_no[8] 	0
scalar abilene_cost_network.node[8].content_store 	decision_ratio[8] 	1
scalar abilene_cost_network.node[9].core_layer 	interests[9] 	0
scalar abilene_cost_network.node[9].core_layer 	data[9] 	0
scalar abilene_cost_network.node[9].content_store 	p_hit[9] 	-nan
scalar abilene_cost_network.node[9].content_store 	hits[9] 	0
scalar abilene_cost_network.node[9].content_store 	misses[9] 	0
scalar abilene_cost_network.node[9].content_store 	decision_yes[9] 	0
scalar abilene_cost_network.node[9].content_store 	decision_no[9] 	0
scalar abilene_cost_network.node[9].content_store 	decision_ratio[9] 	0
scalar abilene_cost_network.node[10].core_layer 	interests[10] 	0
scalar abilene_cost_network.node[10].core_layer 	data[10] 	0
scalar abilene_cost_network.node[10].content_store 	p_hit[10] 	-nan
scalar abilene_cost_network.node[10].content_store 	hits[10] 	0
scalar abilene_cost_network.node[10].content_store 	misses[10] 	0
scalar abilene_cost_network.node[10].content_store 	decision_yes[10] 	0
scalar abilene_cost_network.node[10].content_store 	decision_no[10] 	0
scalar abilene_cost_network.node[10].content_store 	decision_ratio[10] 	0
scalar abilene_cost_network.client[0] 	hdistance[0] 	3.3937393633346
scalar abilene_cost_network.client[0] 	downloads[0] 	179215
scalar abilene_cost_network.client[0] 	avg_time[0] 	0.018282149667
scalar abilene_cost_network.client[0] 	interests_sent[0] 	179460
scalar abilene_cost_network.client[2] 	hdistance[2] 	2.0621129407056
scalar abilene_cost_network.client[2] 	downloads[2] 	179882
scalar abilene_cost_network.client[2] 	avg_time[2] 	0.00679516952
scalar abilene_cost_network.client[2] 	interests_sent[2] 	180073
scalar abilene_cost_network.client[3] 	hdistance[3] 	1.8891003383191
scalar abilene_cost_network.client[3] 	downloads[3] 	179712
scalar abilene_cost_network.client[3] 	avg_time[3] 	0.005901313981
scalar abilene_cost_network.client[3] 	interests_sent[3] 	179913
