version 2
run General-2-20140902-16:17:12-17261
attr D lce
attr F nrr
attr R lru
attr a 1
attr configname General
attr csize 1e3
attr ctlg 1e5
attr datetime 20140902-16:17:12
attr experiment General
attr inifile omnetpp.ini
attr iterationvars "$net=abilene_cost, $rep=6, $priceratiovalue=10, $weights=0.333_0.333_0.334, $lambda=100, $a=1, $ctlg=1e5, $F=nrr, $ttl=10, $D=lce, $xi=1, $R=lru, $csize=1e3, $pricebits=0, $window=60, $variance=0.05, $mytime=1800"
attr iterationvars2 "$net=abilene_cost, $rep=6, $priceratiovalue=10, $weights=0.333_0.333_0.334, $lambda=100, $a=1, $ctlg=1e5, $F=nrr, $ttl=10, $D=lce, $xi=1, $R=lru, $csize=1e3, $pricebits=0, $window=60, $variance=0.05, $mytime=1800, $repetition=0"
attr lambda 100
attr measurement "$net=abilene_cost, $rep=6, $priceratiovalue=10, $weights=0.333_0.333_0.334, $lambda=100, $a=1, $ctlg=1e5, $F=nrr, $ttl=10, $D=lce, $xi=1, $R=lru, $csize=1e3, $pricebits=0, $window=60, $variance=0.05, $mytime=1800"
attr mytime 1800
attr net abilene_cost
attr network networks.${net=abilene_cost}_network
attr pricebits 0
attr priceratiovalue 10
attr processid 17261
attr rep 6
attr repetition 0
attr replication #0
attr resultdir results
attr runnumber 2
attr seedset 6
attr ttl 10
attr variance 0.05
attr weights 0.333_0.333_0.334
attr window 60
attr xi 1

scalar . 	a 	1
scalar . 	csize 	1e3
scalar . 	ctlg 	1e5
scalar . 	lambda 	100
scalar . 	mytime 	1800
scalar . 	pricebits 	0
scalar . 	priceratiovalue 	10
scalar . 	rep 	6
scalar . 	ttl 	10
scalar . 	variance 	0.05
scalar . 	window 	60
scalar . 	xi 	1
scalar abilene_cost_network.content_distribution 	repo-0 	5
scalar abilene_cost_network.content_distribution 	repo-1 	2
scalar abilene_cost_network.content_distribution 	repo-2 	8
scalar abilene_cost_network.content_distribution 	client-0 	4
scalar abilene_cost_network.content_distribution 	client-1 	10
scalar abilene_cost_network.content_distribution 	client-2 	2
scalar abilene_cost_network.content_distribution 	repo-0_card 	33434
scalar abilene_cost_network.content_distribution 	repo-0_price 	1
scalar abilene_cost_network.content_distribution 	repo-1_card 	33143
scalar abilene_cost_network.content_distribution 	repo-1_price 	10
scalar abilene_cost_network.content_distribution 	repo-2_card 	33423
scalar abilene_cost_network.content_distribution 	repo-2_price 	0
scalar abilene_cost_network.statistics 	repo_popularity[0] 	0.41241466788296
scalar abilene_cost_network.statistics 	repo_popularity[1] 	0.27822505478955
scalar abilene_cost_network.statistics 	repo_popularity[2] 	0.3093602773275
scalar abilene_cost_network.statistics 	stabilization_time 	36060
scalar abilene_cost_network.statistics 	p_hit 	0.14452975520462
scalar abilene_cost_network.statistics 	interests 	121871.72727273
scalar abilene_cost_network.statistics 	data 	72778.181818182
scalar abilene_cost_network.statistics 	hdistance 	2.1256323544962
scalar abilene_cost_network.statistics 	avg_time 	0.008752324255
scalar abilene_cost_network.statistics 	downloads 	539492
scalar abilene_cost_network.statistics 	total_cost 	1364210
scalar abilene_cost_network.statistics 	total_replicas 	100000
scalar abilene_cost_network.statistics 	inner_hit 	0.35941960214424
scalar abilene_cost_network.statistics 	interests_sent 	540026
scalar abilene_cost_network.node[0].core_layer 	interests[0] 	0
scalar abilene_cost_network.node[0].core_layer 	data[0] 	0
scalar abilene_cost_network.node[0].core_layer 	repo_int[0] 	345588
scalar abilene_cost_network.node[0].content_store 	p_hit[0] 	-nan
scalar abilene_cost_network.node[0].content_store 	hits[0] 	0
scalar abilene_cost_network.node[0].content_store 	misses[0] 	0
scalar abilene_cost_network.node[0].content_store 	decision_yes[0] 	0
scalar abilene_cost_network.node[0].content_store 	decision_no[0] 	0
scalar abilene_cost_network.node[0].content_store 	decision_ratio[0] 	0
scalar abilene_cost_network.node[1].core_layer 	interests[1] 	97720
scalar abilene_cost_network.node[1].core_layer 	data[1] 	84986
scalar abilene_cost_network.node[1].content_store 	p_hit[1] 	0.13029062627916
scalar abilene_cost_network.node[1].content_store 	hits[1] 	12732
scalar abilene_cost_network.node[1].content_store 	misses[1] 	84988
scalar abilene_cost_network.node[1].content_store 	decision_yes[1] 	84986
scalar abilene_cost_network.node[1].content_store 	decision_no[1] 	0
scalar abilene_cost_network.node[1].content_store 	decision_ratio[1] 	1
scalar abilene_cost_network.node[2].core_layer 	interests[2] 	353941
scalar abilene_cost_network.node[2].core_layer 	repo_load[2] 	125213
scalar abilene_cost_network.node[2].core_layer 	data[2] 	172252
scalar abilene_cost_network.node[2].content_store 	p_hit[2] 	0.15880612870507
scalar abilene_cost_network.node[2].content_store 	hits[2] 	56208
scalar abilene_cost_network.node[2].content_store 	misses[2] 	297733
scalar abilene_cost_network.node[2].content_store 	decision_yes[2] 	297446
scalar abilene_cost_network.node[2].content_store 	decision_no[2] 	0
scalar abilene_cost_network.node[2].content_store 	decision_ratio[2] 	1
scalar abilene_cost_network.node[3].core_layer 	interests[3] 	174862
scalar abilene_cost_network.node[3].core_layer 	data[3] 	168846
scalar abilene_cost_network.node[3].content_store 	p_hit[3] 	0.034398554288525
scalar abilene_cost_network.node[3].content_store 	hits[3] 	6015
scalar abilene_cost_network.node[3].content_store 	misses[3] 	168847
scalar abilene_cost_network.node[3].content_store 	decision_yes[3] 	168842
scalar abilene_cost_network.node[3].content_store 	decision_no[3] 	0
scalar abilene_cost_network.node[3].content_store 	decision_ratio[3] 	1
scalar abilene_cost_network.node[4].core_layer 	interests[4] 	258361
scalar abilene_cost_network.node[4].core_layer 	data[4] 	209501
scalar abilene_cost_network.node[4].content_store 	p_hit[4] 	0.1882714496383
scalar abilene_cost_network.node[4].content_store 	hits[4] 	48642
scalar abilene_cost_network.node[4].content_store 	misses[4] 	209719
scalar abilene_cost_network.node[4].content_store 	decision_yes[4] 	209491
scalar abilene_cost_network.node[4].content_store 	decision_no[4] 	0
scalar abilene_cost_network.node[4].content_store 	decision_ratio[4] 	1
scalar abilene_cost_network.node[5].core_layer 	interests[5] 	116511
scalar abilene_cost_network.node[5].core_layer 	repo_load[5] 	112080
scalar abilene_cost_network.node[5].core_layer 	data[5] 	0
scalar abilene_cost_network.node[5].content_store 	p_hit[5] 	0.03803074387826
scalar abilene_cost_network.node[5].content_store 	hits[5] 	4431
scalar abilene_cost_network.node[5].content_store 	misses[5] 	112080
scalar abilene_cost_network.node[5].content_store 	decision_yes[5] 	112080
scalar abilene_cost_network.node[5].content_store 	decision_no[5] 	0
scalar abilene_cost_network.node[5].content_store 	decision_ratio[5] 	1
scalar abilene_cost_network.node[6].core_layer 	interests[6] 	0
scalar abilene_cost_network.node[6].core_layer 	data[6] 	0
scalar abilene_cost_network.node[6].content_store 	p_hit[6] 	-nan
scalar abilene_cost_network.node[6].content_store 	hits[6] 	0
scalar abilene_cost_network.node[6].content_store 	misses[6] 	0
scalar abilene_cost_network.node[6].content_store 	decision_yes[6] 	0
scalar abilene_cost_network.node[6].content_store 	decision_no[6] 	0
scalar abilene_cost_network.node[6].content_store 	decision_ratio[6] 	0
scalar abilene_cost_network.node[7].core_layer 	interests[7] 	0
scalar abilene_cost_network.node[7].core_layer 	data[7] 	0
scalar abilene_cost_network.node[7].content_store 	p_hit[7] 	-nan
scalar abilene_cost_network.node[7].content_store 	hits[7] 	0
scalar abilene_cost_network.node[7].content_store 	misses[7] 	0
scalar abilene_cost_network.node[7].content_store 	decision_yes[7] 	0
scalar abilene_cost_network.node[7].content_store 	decision_no[7] 	0
scalar abilene_cost_network.node[7].content_store 	decision_ratio[7] 	0
scalar abilene_cost_network.node[8].core_layer 	interests[8] 	117047
scalar abilene_cost_network.node[8].core_layer 	repo_load[8] 	108295
scalar abilene_cost_network.node[8].core_layer 	data[8] 	0
scalar abilene_cost_network.node[8].content_store 	p_hit[8] 	0.074773381633019
scalar abilene_cost_network.node[8].content_store 	hits[8] 	8752
scalar abilene_cost_network.node[8].content_store 	misses[8] 	108295
scalar abilene_cost_network.node[8].content_store 	decision_yes[8] 	108295
scalar abilene_cost_network.node[8].content_store 	decision_no[8] 	0
scalar abilene_cost_network.node[8].content_store 	decision_ratio[8] 	1
scalar abilene_cost_network.node[9].core_layer 	interests[9] 	40589
scalar abilene_cost_network.node[9].core_layer 	data[9] 	36372
scalar abilene_cost_network.node[9].content_store 	p_hit[9] 	0.10391978122151
scalar abilene_cost_network.node[9].content_store 	hits[9] 	4218
scalar abilene_cost_network.node[9].content_store 	misses[9] 	36371
scalar abilene_cost_network.node[9].content_store 	decision_yes[9] 	36372
scalar abilene_cost_network.node[9].content_store 	decision_no[9] 	0
scalar abilene_cost_network.node[9].content_store 	decision_ratio[9] 	1
scalar abilene_cost_network.node[10].core_layer 	interests[10] 	181558
scalar abilene_cost_network.node[10].core_layer 	data[10] 	128603
scalar abilene_cost_network.node[10].content_store 	p_hit[10] 	0.2905793190055
scalar abilene_cost_network.node[10].content_store 	hits[10] 	52757
scalar abilene_cost_network.node[10].content_store 	misses[10] 	128801
scalar abilene_cost_network.node[10].content_store 	decision_yes[10] 	128603
scalar abilene_cost_network.node[10].content_store 	decision_no[10] 	0
scalar abilene_cost_network.node[10].content_store 	decision_ratio[10] 	1
scalar abilene_cost_network.client[2] 	hdistance[2] 	1.6009821329486
scalar abilene_cost_network.client[2] 	downloads[2] 	180220
scalar abilene_cost_network.client[2] 	avg_time[2] 	0.005069246742
scalar abilene_cost_network.client[2] 	interests_sent[2] 	180384
scalar abilene_cost_network.client[4] 	hdistance[4] 	2.1367101002571
scalar abilene_cost_network.client[4] 	downloads[4] 	179738
scalar abilene_cost_network.client[4] 	avg_time[4] 	0.00672529676
scalar abilene_cost_network.client[4] 	interests_sent[4] 	179910
scalar abilene_cost_network.client[10] 	hdistance[10] 	2.6392048302828
scalar abilene_cost_network.client[10] 	downloads[10] 	179534
scalar abilene_cost_network.client[10] 	avg_time[10] 	0.014462429265
scalar abilene_cost_network.client[10] 	interests_sent[10] 	179732
