version 2
run General-6-20140902-15:50:20-20476
attr D lce
attr F nrr
attr R lru
attr a 1
attr configname General
attr csize 1e3
attr ctlg 1e5
attr datetime 20140902-15:50:20
attr experiment General
attr inifile omnetpp.ini
attr iterationvars "$net=abilene_cost, $rep=18, $priceratiovalue=10, $weights=0.333_0.333_0.334, $lambda=100, $a=1, $ctlg=1e5, $F=nrr, $ttl=10, $D=lce, $xi=1, $R=lru, $csize=1e3, $pricebits=0, $window=60, $variance=0.05, $mytime=1800"
attr iterationvars2 "$net=abilene_cost, $rep=18, $priceratiovalue=10, $weights=0.333_0.333_0.334, $lambda=100, $a=1, $ctlg=1e5, $F=nrr, $ttl=10, $D=lce, $xi=1, $R=lru, $csize=1e3, $pricebits=0, $window=60, $variance=0.05, $mytime=1800, $repetition=0"
attr lambda 100
attr measurement "$net=abilene_cost, $rep=18, $priceratiovalue=10, $weights=0.333_0.333_0.334, $lambda=100, $a=1, $ctlg=1e5, $F=nrr, $ttl=10, $D=lce, $xi=1, $R=lru, $csize=1e3, $pricebits=0, $window=60, $variance=0.05, $mytime=1800"
attr mytime 1800
attr net abilene_cost
attr network networks.${net=abilene_cost}_network
attr pricebits 0
attr priceratiovalue 10
attr processid 20476
attr rep 18
attr repetition 0
attr replication #0
attr resultdir results
attr runnumber 6
attr seedset 18
attr ttl 10
attr variance 0.05
attr weights 0.333_0.333_0.334
attr window 60
attr xi 1

scalar . 	a 	1
scalar . 	csize 	1e3
scalar . 	ctlg 	1e5
scalar . 	lambda 	100
scalar . 	mytime 	1800
scalar . 	pricebits 	0
scalar . 	priceratiovalue 	10
scalar . 	rep 	18
scalar . 	ttl 	10
scalar . 	variance 	0.05
scalar . 	window 	60
scalar . 	xi 	1
scalar abilene_cost_network.content_distribution 	repo-0 	10
scalar abilene_cost_network.content_distribution 	repo-1 	7
scalar abilene_cost_network.content_distribution 	repo-2 	8
scalar abilene_cost_network.content_distribution 	client-0 	5
scalar abilene_cost_network.content_distribution 	client-1 	7
scalar abilene_cost_network.content_distribution 	client-2 	1
scalar abilene_cost_network.content_distribution 	repo-0_card 	33459
scalar abilene_cost_network.content_distribution 	repo-0_price 	10
scalar abilene_cost_network.content_distribution 	repo-1_card 	33217
scalar abilene_cost_network.content_distribution 	repo-1_price 	1
scalar abilene_cost_network.content_distribution 	repo-2_card 	33324
scalar abilene_cost_network.content_distribution 	repo-2_price 	0
scalar abilene_cost_network.statistics 	repo_popularity[0] 	0.37601233625496
scalar abilene_cost_network.statistics 	repo_popularity[1] 	0.2643417951054
scalar abilene_cost_network.statistics 	repo_popularity[2] 	0.35964586863965
scalar abilene_cost_network.statistics 	stabilization_time 	36060
scalar abilene_cost_network.statistics 	p_hit 	0.15191358011117
scalar abilene_cost_network.statistics 	interests 	124020.27272727
scalar abilene_cost_network.statistics 	data 	74857.363636364
scalar abilene_cost_network.statistics 	hdistance 	2.1413641500629
scalar abilene_cost_network.statistics 	avg_time 	0.009427479441
scalar abilene_cost_network.statistics 	downloads 	540306
scalar abilene_cost_network.statistics 	total_cost 	1176306
scalar abilene_cost_network.statistics 	total_replicas 	100000
scalar abilene_cost_network.statistics 	inner_hit 	0.38367887826528
scalar abilene_cost_network.statistics 	interests_sent 	540785
scalar abilene_cost_network.node[0].core_layer 	interests[0] 	0
scalar abilene_cost_network.node[0].core_layer 	data[0] 	0
scalar abilene_cost_network.node[0].core_layer 	repo_int[0] 	333002
scalar abilene_cost_network.node[0].content_store 	p_hit[0] 	-nan
scalar abilene_cost_network.node[0].content_store 	hits[0] 	0
scalar abilene_cost_network.node[0].content_store 	misses[0] 	0
scalar abilene_cost_network.node[0].content_store 	decision_yes[0] 	0
scalar abilene_cost_network.node[0].content_store 	decision_no[0] 	0
scalar abilene_cost_network.node[0].content_store 	decision_ratio[0] 	0
scalar abilene_cost_network.node[1].core_layer 	interests[1] 	214755
scalar abilene_cost_network.node[1].core_layer 	data[1] 	165560
scalar abilene_cost_network.node[1].content_store 	p_hit[1] 	0.22803659984634
scalar abilene_cost_network.node[1].content_store 	hits[1] 	48972
scalar abilene_cost_network.node[1].content_store 	misses[1] 	165783
scalar abilene_cost_network.node[1].content_store 	decision_yes[1] 	165553
scalar abilene_cost_network.node[1].content_store 	decision_no[1] 	0
scalar abilene_cost_network.node[1].content_store 	decision_ratio[1] 	1
scalar abilene_cost_network.node[2].core_layer 	interests[2] 	126588
scalar abilene_cost_network.node[2].core_layer 	data[2] 	122666
scalar abilene_cost_network.node[2].content_store 	p_hit[2] 	0.030966600309666
scalar abilene_cost_network.node[2].content_store 	hits[2] 	3920
scalar abilene_cost_network.node[2].content_store 	misses[2] 	122668
scalar abilene_cost_network.node[2].content_store 	decision_yes[2] 	122654
scalar abilene_cost_network.node[2].content_store 	decision_no[2] 	0
scalar abilene_cost_network.node[2].content_store 	decision_ratio[2] 	1
scalar abilene_cost_network.node[3].core_layer 	interests[3] 	96396
scalar abilene_cost_network.node[3].core_layer 	data[3] 	81321
scalar abilene_cost_network.node[3].content_store 	p_hit[3] 	0.15632391385535
scalar abilene_cost_network.node[3].content_store 	hits[3] 	15069
scalar abilene_cost_network.node[3].content_store 	misses[3] 	81327
scalar abilene_cost_network.node[3].content_store 	decision_yes[3] 	81311
scalar abilene_cost_network.node[3].content_store 	decision_no[3] 	0
scalar abilene_cost_network.node[3].content_store 	decision_ratio[3] 	1
scalar abilene_cost_network.node[4].core_layer 	interests[4] 	51894
scalar abilene_cost_network.node[4].core_layer 	data[4] 	38482
scalar abilene_cost_network.node[4].content_store 	p_hit[4] 	0.25841137703781
scalar abilene_cost_network.node[4].content_store 	hits[4] 	13410
scalar abilene_cost_network.node[4].content_store 	misses[4] 	38484
scalar abilene_cost_network.node[4].content_store 	decision_yes[4] 	38482
scalar abilene_cost_network.node[4].content_store 	decision_no[4] 	0
scalar abilene_cost_network.node[4].content_store 	decision_ratio[4] 	1
scalar abilene_cost_network.node[5].core_layer 	interests[5] 	182038
scalar abilene_cost_network.node[5].core_layer 	data[5] 	129283
scalar abilene_cost_network.node[5].content_store 	p_hit[5] 	0.28916489963634
scalar abilene_cost_network.node[5].content_store 	hits[5] 	52639
scalar abilene_cost_network.node[5].content_store 	misses[5] 	129399
scalar abilene_cost_network.node[5].content_store 	decision_yes[5] 	129283
scalar abilene_cost_network.node[5].content_store 	decision_no[5] 	0
scalar abilene_cost_network.node[5].content_store 	decision_ratio[5] 	1
scalar abilene_cost_network.node[6].core_layer 	interests[6] 	90127
scalar abilene_cost_network.node[6].core_layer 	data[6] 	80695
scalar abilene_cost_network.node[6].content_store 	p_hit[6] 	0.10465232394288
scalar abilene_cost_network.node[6].content_store 	hits[6] 	9432
scalar abilene_cost_network.node[6].content_store 	misses[6] 	80695
scalar abilene_cost_network.node[6].content_store 	decision_yes[6] 	80694
scalar abilene_cost_network.node[6].content_store 	decision_no[6] 	0
scalar abilene_cost_network.node[6].content_store 	decision_ratio[6] 	1
scalar abilene_cost_network.node[7].core_layer 	interests[7] 	299572
scalar abilene_cost_network.node[7].core_layer 	repo_load[7] 	117276
scalar abilene_cost_network.node[7].core_layer 	data[7] 	132627
scalar abilene_cost_network.node[7].content_store 	p_hit[7] 	0.1651456077337
scalar abilene_cost_network.node[7].content_store 	hits[7] 	49473
scalar abilene_cost_network.node[7].content_store 	misses[7] 	250099
scalar abilene_cost_network.node[7].content_store 	decision_yes[7] 	249888
scalar abilene_cost_network.node[7].content_store 	decision_no[7] 	0
scalar abilene_cost_network.node[7].content_store 	decision_ratio[7] 	1
scalar abilene_cost_network.node[8].core_layer 	interests[8] 	154828
scalar abilene_cost_network.node[8].core_layer 	repo_load[8] 	109823
scalar abilene_cost_network.node[8].core_layer 	data[8] 	38668
scalar abilene_cost_network.node[8].content_store 	p_hit[8] 	0.040922830495776
scalar abilene_cost_network.node[8].content_store 	hits[8] 	6336
scalar abilene_cost_network.node[8].content_store 	misses[8] 	148492
scalar abilene_cost_network.node[8].content_store 	decision_yes[8] 	148491
scalar abilene_cost_network.node[8].content_store 	decision_no[8] 	0
scalar abilene_cost_network.node[8].content_store 	decision_ratio[8] 	1
scalar abilene_cost_network.node[9].core_layer 	interests[9] 	38669
scalar abilene_cost_network.node[9].core_layer 	data[9] 	34129
scalar abilene_cost_network.node[9].content_store 	p_hit[9] 	0.11740670821588
scalar abilene_cost_network.node[9].content_store 	hits[9] 	4540
scalar abilene_cost_network.node[9].content_store 	misses[9] 	34129
scalar abilene_cost_network.node[9].content_store 	decision_yes[9] 	34129
scalar abilene_cost_network.node[9].content_store 	decision_no[9] 	0
scalar abilene_cost_network.node[9].content_store 	decision_ratio[9] 	1
scalar abilene_cost_network.node[10].core_layer 	interests[10] 	109356
scalar abilene_cost_network.node[10].core_layer 	repo_load[10] 	105903
scalar abilene_cost_network.node[10].core_layer 	data[10] 	0
scalar abilene_cost_network.node[10].content_store 	p_hit[10] 	0.031575770876769
scalar abilene_cost_network.node[10].content_store 	hits[10] 	3453
scalar abilene_cost_network.node[10].content_store 	misses[10] 	105903
scalar abilene_cost_network.node[10].content_store 	decision_yes[10] 	105903
scalar abilene_cost_network.node[10].content_store 	decision_no[10] 	0
scalar abilene_cost_network.node[10].content_store 	decision_ratio[10] 	1
scalar abilene_cost_network.client[1] 	hdistance[1] 	2.0950821680561
scalar abilene_cost_network.client[1] 	downloads[1] 	179571
scalar abilene_cost_network.client[1] 	avg_time[1] 	0.009225569537
scalar abilene_cost_network.client[1] 	interests_sent[1] 	179775
scalar abilene_cost_network.client[5] 	hdistance[5] 	2.7670753940904
scalar abilene_cost_network.client[5] 	downloads[5] 	179908
scalar abilene_cost_network.client[5] 	avg_time[5] 	0.011739746554
scalar abilene_cost_network.client[5] 	interests_sent[5] 	180024
scalar abilene_cost_network.client[7] 	hdistance[7] 	1.5619348880422
scalar abilene_cost_network.client[7] 	downloads[7] 	180827
scalar abilene_cost_network.client[7] 	avg_time[7] 	0.007317122232
scalar abilene_cost_network.client[7] 	interests_sent[7] 	180986
