version 2
run General-6-20140902-16:17:12-17265
attr D lce
attr F nrr
attr R lru
attr a 1
attr configname General
attr csize 1e3
attr ctlg 1e5
attr datetime 20140902-16:17:12
attr experiment General
attr inifile omnetpp.ini
attr iterationvars "$net=abilene_cost, $rep=7, $priceratiovalue=10, $weights=0.333_0.333_0.334, $lambda=100, $a=1, $ctlg=1e5, $F=nrr, $ttl=10, $D=lce, $xi=1, $R=lru, $csize=1e3, $pricebits=0, $window=60, $variance=0.05, $mytime=1800"
attr iterationvars2 "$net=abilene_cost, $rep=7, $priceratiovalue=10, $weights=0.333_0.333_0.334, $lambda=100, $a=1, $ctlg=1e5, $F=nrr, $ttl=10, $D=lce, $xi=1, $R=lru, $csize=1e3, $pricebits=0, $window=60, $variance=0.05, $mytime=1800, $repetition=0"
attr lambda 100
attr measurement "$net=abilene_cost, $rep=7, $priceratiovalue=10, $weights=0.333_0.333_0.334, $lambda=100, $a=1, $ctlg=1e5, $F=nrr, $ttl=10, $D=lce, $xi=1, $R=lru, $csize=1e3, $pricebits=0, $window=60, $variance=0.05, $mytime=1800"
attr mytime 1800
attr net abilene_cost
attr network networks.${net=abilene_cost}_network
attr pricebits 0
attr priceratiovalue 10
attr processid 17265
attr rep 7
attr repetition 0
attr replication #0
attr resultdir results
attr runnumber 6
attr seedset 7
attr ttl 10
attr variance 0.05
attr weights 0.333_0.333_0.334
attr window 60
attr xi 1

scalar . 	a 	1
scalar . 	csize 	1e3
scalar . 	ctlg 	1e5
scalar . 	lambda 	100
scalar . 	mytime 	1800
scalar . 	pricebits 	0
scalar . 	priceratiovalue 	10
scalar . 	rep 	7
scalar . 	ttl 	10
scalar . 	variance 	0.05
scalar . 	window 	60
scalar . 	xi 	1
scalar abilene_cost_network.content_distribution 	repo-0 	5
scalar abilene_cost_network.content_distribution 	repo-1 	4
scalar abilene_cost_network.content_distribution 	repo-2 	0
scalar abilene_cost_network.content_distribution 	client-0 	6
scalar abilene_cost_network.content_distribution 	client-1 	4
scalar abilene_cost_network.content_distribution 	client-2 	8
scalar abilene_cost_network.content_distribution 	repo-0_card 	33104
scalar abilene_cost_network.content_distribution 	repo-0_price 	10
scalar abilene_cost_network.content_distribution 	repo-1_card 	33509
scalar abilene_cost_network.content_distribution 	repo-1_price 	0
scalar abilene_cost_network.content_distribution 	repo-2_card 	33387
scalar abilene_cost_network.content_distribution 	repo-2_price 	1
scalar abilene_cost_network.statistics 	repo_popularity[0] 	0.32830784336445
scalar abilene_cost_network.statistics 	repo_popularity[1] 	0.32988541312008
scalar abilene_cost_network.statistics 	repo_popularity[2] 	0.34180674351549
scalar abilene_cost_network.statistics 	stabilization_time 	36060
scalar abilene_cost_network.statistics 	p_hit 	0.13753652033238
scalar abilene_cost_network.statistics 	interests 	131775.90909091
scalar abilene_cost_network.statistics 	data 	82711.363636364
scalar abilene_cost_network.statistics 	hdistance 	2.317036880257
scalar abilene_cost_network.statistics 	avg_time 	0.009780243441
scalar abilene_cost_network.statistics 	downloads 	539266
scalar abilene_cost_network.statistics 	total_cost 	1228466
scalar abilene_cost_network.statistics 	total_replicas 	100000
scalar abilene_cost_network.statistics 	inner_hit 	0.37004372610178
scalar abilene_cost_network.statistics 	interests_sent 	539709
scalar abilene_cost_network.node[0].core_layer 	interests[0] 	113934
scalar abilene_cost_network.node[0].core_layer 	repo_load[0] 	113886
scalar abilene_cost_network.node[0].core_layer 	data[0] 	0
scalar abilene_cost_network.node[0].core_layer 	repo_int[0] 	339714
scalar abilene_cost_network.node[0].content_store 	p_hit[0] 	0.00042129654010216
scalar abilene_cost_network.node[0].content_store 	hits[0] 	48
scalar abilene_cost_network.node[0].content_store 	misses[0] 	113886
scalar abilene_cost_network.node[0].content_store 	decision_yes[0] 	113886
scalar abilene_cost_network.node[0].content_store 	decision_no[0] 	0
scalar abilene_cost_network.node[0].content_store 	decision_ratio[0] 	1
scalar abilene_cost_network.node[1].core_layer 	interests[1] 	115152
scalar abilene_cost_network.node[1].core_layer 	data[1] 	113934
scalar abilene_cost_network.node[1].content_store 	p_hit[1] 	0.010577323884952
scalar abilene_cost_network.node[1].content_store 	hits[1] 	1218
scalar abilene_cost_network.node[1].content_store 	misses[1] 	113934
scalar abilene_cost_network.node[1].content_store 	decision_yes[1] 	113933
scalar abilene_cost_network.node[1].content_store 	decision_no[1] 	0
scalar abilene_cost_network.node[1].content_store 	decision_ratio[1] 	1
scalar abilene_cost_network.node[2].core_layer 	interests[2] 	158724
scalar abilene_cost_network.node[2].core_layer 	data[2] 	154970
scalar abilene_cost_network.node[2].content_store 	p_hit[2] 	0.022901388573877
scalar abilene_cost_network.node[2].content_store 	hits[2] 	3635
scalar abilene_cost_network.node[2].content_store 	misses[2] 	155089
scalar abilene_cost_network.node[2].content_store 	decision_yes[2] 	154958
scalar abilene_cost_network.node[2].content_store 	decision_no[2] 	0
scalar abilene_cost_network.node[2].content_store 	decision_ratio[2] 	1
scalar abilene_cost_network.node[3].core_layer 	interests[3] 	130146
scalar abilene_cost_network.node[3].core_layer 	data[3] 	122315
scalar abilene_cost_network.node[3].content_store 	p_hit[3] 	0.059671445914588
scalar abilene_cost_network.node[3].content_store 	hits[3] 	7766
scalar abilene_cost_network.node[3].content_store 	misses[3] 	122380
scalar abilene_cost_network.node[3].content_store 	decision_yes[3] 	122308
scalar abilene_cost_network.node[3].content_store 	decision_no[3] 	0
scalar abilene_cost_network.node[3].content_store 	decision_ratio[3] 	1
scalar abilene_cost_network.node[4].core_layer 	interests[4] 	257482
scalar abilene_cost_network.node[4].core_layer 	repo_load[4] 	114370
scalar abilene_cost_network.node[4].core_layer 	data[4] 	93560
scalar abilene_cost_network.node[4].content_store 	p_hit[4] 	0.1918347690324
scalar abilene_cost_network.node[4].content_store 	hits[4] 	49394
scalar abilene_cost_network.node[4].content_store 	misses[4] 	208088
scalar abilene_cost_network.node[4].content_store 	decision_yes[4] 	207923
scalar abilene_cost_network.node[4].content_store 	decision_no[4] 	0
scalar abilene_cost_network.node[4].content_store 	decision_ratio[4] 	1
scalar abilene_cost_network.node[5].core_layer 	interests[5] 	160331
scalar abilene_cost_network.node[5].core_layer 	repo_load[5] 	111458
scalar abilene_cost_network.node[5].core_layer 	data[5] 	40863
scalar abilene_cost_network.node[5].content_store 	p_hit[5] 	0.049959147014614
scalar abilene_cost_network.node[5].content_store 	hits[5] 	8010
scalar abilene_cost_network.node[5].content_store 	misses[5] 	152321
scalar abilene_cost_network.node[5].content_store 	decision_yes[5] 	152321
scalar abilene_cost_network.node[5].content_store 	decision_no[5] 	0
scalar abilene_cost_network.node[5].content_store 	decision_ratio[5] 	1
scalar abilene_cost_network.node[6].core_layer 	interests[6] 	223097
scalar abilene_cost_network.node[6].core_layer 	data[6] 	168900
scalar abilene_cost_network.node[6].content_store 	p_hit[6] 	0.24235198142512
scalar abilene_cost_network.node[6].content_store 	hits[6] 	54068
scalar abilene_cost_network.node[6].content_store 	misses[6] 	169029
scalar abilene_cost_network.node[6].content_store 	decision_yes[6] 	168890
scalar abilene_cost_network.node[6].content_store 	decision_no[6] 	0
scalar abilene_cost_network.node[6].content_store 	decision_ratio[6] 	1
scalar abilene_cost_network.node[7].core_layer 	interests[7] 	106333
scalar abilene_cost_network.node[7].core_layer 	data[7] 	86082
scalar abilene_cost_network.node[7].content_store 	p_hit[7] 	0.19043946846228
scalar abilene_cost_network.node[7].content_store 	hits[7] 	20250
scalar abilene_cost_network.node[7].content_store 	misses[7] 	86083
scalar abilene_cost_network.node[7].content_store 	decision_yes[7] 	86073
scalar abilene_cost_network.node[7].content_store 	decision_no[7] 	0
scalar abilene_cost_network.node[7].content_store 	decision_ratio[7] 	1
scalar abilene_cost_network.node[8].core_layer 	interests[8] 	184336
scalar abilene_cost_network.node[8].core_layer 	data[8] 	129201
scalar abilene_cost_network.node[8].content_store 	p_hit[8] 	0.29823257529728
scalar abilene_cost_network.node[8].content_store 	hits[8] 	54975
scalar abilene_cost_network.node[8].content_store 	misses[8] 	129361
scalar abilene_cost_network.node[8].content_store 	decision_yes[8] 	129201
scalar abilene_cost_network.node[8].content_store 	decision_no[8] 	0
scalar abilene_cost_network.node[8].content_store 	decision_ratio[8] 	1
scalar abilene_cost_network.node[9].core_layer 	interests[9] 	0
scalar abilene_cost_network.node[9].core_layer 	data[9] 	0
scalar abilene_cost_network.node[9].content_store 	p_hit[9] 	-nan
scalar abilene_cost_network.node[9].content_store 	hits[9] 	0
scalar abilene_cost_network.node[9].content_store 	misses[9] 	0
scalar abilene_cost_network.node[9].content_store 	decision_yes[9] 	0
scalar abilene_cost_network.node[9].content_store 	decision_no[9] 	0
scalar abilene_cost_network.node[9].content_store 	decision_ratio[9] 	0
scalar abilene_cost_network.node[10].core_layer 	interests[10] 	0
scalar abilene_cost_network.node[10].core_layer 	data[10] 	0
scalar abilene_cost_network.node[10].content_store 	p_hit[10] 	-nan
scalar abilene_cost_network.node[10].content_store 	hits[10] 	0
scalar abilene_cost_network.node[10].content_store 	misses[10] 	0
scalar abilene_cost_network.node[10].content_store 	decision_yes[10] 	0
scalar abilene_cost_network.node[10].content_store 	decision_no[10] 	0
scalar abilene_cost_network.node[10].content_store 	decision_ratio[10] 	0
scalar abilene_cost_network.client[4] 	hdistance[4] 	1.8565457664433
scalar abilene_cost_network.client[4] 	downloads[4] 	178963
scalar abilene_cost_network.client[4] 	avg_time[4] 	0.0071899993
scalar abilene_cost_network.client[4] 	interests_sent[4] 	179121
scalar abilene_cost_network.client[6] 	hdistance[6] 	2.4570804720315
scalar abilene_cost_network.client[6] 	downloads[6] 	179988
scalar abilene_cost_network.client[6] 	avg_time[6] 	0.010159168467
scalar abilene_cost_network.client[6] 	interests_sent[6] 	180113
scalar abilene_cost_network.client[8] 	hdistance[8] 	2.6374844022961
scalar abilene_cost_network.client[8] 	downloads[8] 	180315
scalar abilene_cost_network.client[8] 	avg_time[8] 	0.011991562557
scalar abilene_cost_network.client[8] 	interests_sent[8] 	180475
