version 2
run General-2-20140902-15:27:30-4516
attr D lce
attr F nrr
attr R lru
attr a 1
attr configname General
attr csize 1e3
attr ctlg 1e5
attr datetime 20140902-15:27:30
attr experiment General
attr inifile omnetpp.ini
attr iterationvars "$net=abilene_cost, $rep=19, $priceratiovalue=10, $weights=0.333_0.333_0.334, $lambda=100, $a=1, $ctlg=1e5, $F=nrr, $ttl=10, $D=lce, $xi=1, $R=lru, $csize=1e3, $pricebits=0, $window=60, $variance=0.05, $mytime=1800"
attr iterationvars2 "$net=abilene_cost, $rep=19, $priceratiovalue=10, $weights=0.333_0.333_0.334, $lambda=100, $a=1, $ctlg=1e5, $F=nrr, $ttl=10, $D=lce, $xi=1, $R=lru, $csize=1e3, $pricebits=0, $window=60, $variance=0.05, $mytime=1800, $repetition=0"
attr lambda 100
attr measurement "$net=abilene_cost, $rep=19, $priceratiovalue=10, $weights=0.333_0.333_0.334, $lambda=100, $a=1, $ctlg=1e5, $F=nrr, $ttl=10, $D=lce, $xi=1, $R=lru, $csize=1e3, $pricebits=0, $window=60, $variance=0.05, $mytime=1800"
attr mytime 1800
attr net abilene_cost
attr network networks.${net=abilene_cost}_network
attr pricebits 0
attr priceratiovalue 10
attr processid 4516
attr rep 19
attr repetition 0
attr replication #0
attr resultdir results
attr runnumber 2
attr seedset 19
attr ttl 10
attr variance 0.05
attr weights 0.333_0.333_0.334
attr window 60
attr xi 1

scalar . 	a 	1
scalar . 	csize 	1e3
scalar . 	ctlg 	1e5
scalar . 	lambda 	100
scalar . 	mytime 	1800
scalar . 	pricebits 	0
scalar . 	priceratiovalue 	10
scalar . 	rep 	19
scalar . 	ttl 	10
scalar . 	variance 	0.05
scalar . 	window 	60
scalar . 	xi 	1
scalar abilene_cost_network.content_distribution 	repo-0 	3
scalar abilene_cost_network.content_distribution 	repo-1 	0
scalar abilene_cost_network.content_distribution 	repo-2 	7
scalar abilene_cost_network.content_distribution 	client-0 	5
scalar abilene_cost_network.content_distribution 	client-1 	3
scalar abilene_cost_network.content_distribution 	client-2 	4
scalar abilene_cost_network.content_distribution 	repo-0_card 	33373
scalar abilene_cost_network.content_distribution 	repo-0_price 	0
scalar abilene_cost_network.content_distribution 	repo-1_card 	33387
scalar abilene_cost_network.content_distribution 	repo-1_price 	10
scalar abilene_cost_network.content_distribution 	repo-2_card 	33240
scalar abilene_cost_network.content_distribution 	repo-2_price 	1
scalar abilene_cost_network.statistics 	repo_popularity[0] 	0.31878344310933
scalar abilene_cost_network.statistics 	repo_popularity[1] 	0.40125644479525
scalar abilene_cost_network.statistics 	repo_popularity[2] 	0.27996011209543
scalar abilene_cost_network.statistics 	stabilization_time 	36060
scalar abilene_cost_network.statistics 	p_hit 	0.1445486285024
scalar abilene_cost_network.statistics 	interests 	123421.81818182
scalar abilene_cost_network.statistics 	data 	74281.272727273
scalar abilene_cost_network.statistics 	hdistance 	2.1509756530674
scalar abilene_cost_network.statistics 	avg_time 	0.008002444918
scalar abilene_cost_network.statistics 	downloads 	540186
scalar abilene_cost_network.statistics 	total_cost 	1237774
scalar abilene_cost_network.statistics 	total_replicas 	100000
scalar abilene_cost_network.statistics 	inner_hit 	0.36382283139511
scalar abilene_cost_network.statistics 	interests_sent 	540543
scalar abilene_cost_network.node[0].core_layer 	interests[0] 	113291
scalar abilene_cost_network.node[0].core_layer 	repo_load[0] 	113266
scalar abilene_cost_network.node[0].core_layer 	data[0] 	0
scalar abilene_cost_network.node[0].core_layer 	repo_int[0] 	343654
scalar abilene_cost_network.node[0].content_store 	p_hit[0] 	0.00022067066227679
scalar abilene_cost_network.node[0].content_store 	hits[0] 	25
scalar abilene_cost_network.node[0].content_store 	misses[0] 	113266
scalar abilene_cost_network.node[0].content_store 	decision_yes[0] 	113266
scalar abilene_cost_network.node[0].content_store 	decision_no[0] 	0
scalar abilene_cost_network.node[0].content_store 	decision_ratio[0] 	1
scalar abilene_cost_network.node[1].core_layer 	interests[1] 	113797
scalar abilene_cost_network.node[1].core_layer 	data[1] 	113291
scalar abilene_cost_network.node[1].content_store 	p_hit[1] 	0.0044553019851138
scalar abilene_cost_network.node[1].content_store 	hits[1] 	507
scalar abilene_cost_network.node[1].content_store 	misses[1] 	113290
scalar abilene_cost_network.node[1].content_store 	decision_yes[1] 	113291
scalar abilene_cost_network.node[1].content_store 	decision_no[1] 	0
scalar abilene_cost_network.node[1].content_store 	decision_ratio[1] 	1
scalar abilene_cost_network.node[2].core_layer 	interests[2] 	122239
scalar abilene_cost_network.node[2].core_layer 	data[2] 	113796
scalar abilene_cost_network.node[2].content_store 	p_hit[2] 	0.069061428840223
scalar abilene_cost_network.node[2].content_store 	hits[2] 	8442
scalar abilene_cost_network.node[2].content_store 	misses[2] 	113797
scalar abilene_cost_network.node[2].content_store 	decision_yes[2] 	113796
scalar abilene_cost_network.node[2].content_store 	decision_no[2] 	0
scalar abilene_cost_network.node[2].content_store 	decision_ratio[2] 	1
scalar abilene_cost_network.node[3].core_layer 	interests[3] 	382125
scalar abilene_cost_network.node[3].core_layer 	repo_load[3] 	125274
scalar abilene_cost_network.node[3].core_layer 	data[3] 	207709
scalar abilene_cost_network.node[3].content_store 	p_hit[3] 	0.12790055610075
scalar abilene_cost_network.node[3].content_store 	hits[3] 	48874
scalar abilene_cost_network.node[3].content_store 	misses[3] 	333251
scalar abilene_cost_network.node[3].content_store 	decision_yes[3] 	332971
scalar abilene_cost_network.node[3].content_store 	decision_no[3] 	0
scalar abilene_cost_network.node[3].content_store 	decision_ratio[3] 	1
scalar abilene_cost_network.node[4].core_layer 	interests[4] 	276879
scalar abilene_cost_network.node[4].core_layer 	data[4] 	215661
scalar abilene_cost_network.node[4].content_store 	p_hit[4] 	0.22027672737911
scalar abilene_cost_network.node[4].content_store 	hits[4] 	60990
scalar abilene_cost_network.node[4].content_store 	misses[4] 	215889
scalar abilene_cost_network.node[4].content_store 	decision_yes[4] 	215637
scalar abilene_cost_network.node[4].content_store 	decision_no[4] 	0
scalar abilene_cost_network.node[4].content_store 	decision_ratio[4] 	1
scalar abilene_cost_network.node[5].core_layer 	interests[5] 	193429
scalar abilene_cost_network.node[5].core_layer 	data[5] 	130854
scalar abilene_cost_network.node[5].content_store 	p_hit[5] 	0.32272306634476
scalar abilene_cost_network.node[5].content_store 	hits[5] 	62424
scalar abilene_cost_network.node[5].content_store 	misses[5] 	131005
scalar abilene_cost_network.node[5].content_store 	decision_yes[5] 	130854
scalar abilene_cost_network.node[5].content_store 	decision_no[5] 	0
scalar abilene_cost_network.node[5].content_store 	decision_ratio[5] 	1
scalar abilene_cost_network.node[6].core_layer 	interests[6] 	43049
scalar abilene_cost_network.node[6].core_layer 	data[6] 	35783
scalar abilene_cost_network.node[6].content_store 	p_hit[6] 	0.16878440846477
scalar abilene_cost_network.node[6].content_store 	hits[6] 	7266
scalar abilene_cost_network.node[6].content_store 	misses[6] 	35783
scalar abilene_cost_network.node[6].content_store 	decision_yes[6] 	35783
scalar abilene_cost_network.node[6].content_store 	decision_no[6] 	0
scalar abilene_cost_network.node[6].content_store 	decision_ratio[6] 	1
scalar abilene_cost_network.node[7].core_layer 	interests[7] 	112831
scalar abilene_cost_network.node[7].core_layer 	repo_load[7] 	105114
scalar abilene_cost_network.node[7].core_layer 	data[7] 	0
scalar abilene_cost_network.node[7].content_store 	p_hit[7] 	0.068394324254859
scalar abilene_cost_network.node[7].content_store 	hits[7] 	7717
scalar abilene_cost_network.node[7].content_store 	misses[7] 	105114
scalar abilene_cost_network.node[7].content_store 	decision_yes[7] 	105114
scalar abilene_cost_network.node[7].content_store 	decision_no[7] 	0
scalar abilene_cost_network.node[7].content_store 	decision_ratio[7] 	1
scalar abilene_cost_network.node[8].core_layer 	interests[8] 	0
scalar abilene_cost_network.node[8].core_layer 	data[8] 	0
scalar abilene_cost_network.node[8].content_store 	p_hit[8] 	-nan
scalar abilene_cost_network.node[8].content_store 	hits[8] 	0
scalar abilene_cost_network.node[8].content_store 	misses[8] 	0
scalar abilene_cost_network.node[8].content_store 	decision_yes[8] 	0
scalar abilene_cost_network.node[8].content_store 	decision_no[8] 	0
scalar abilene_cost_network.node[8].content_store 	decision_ratio[8] 	0
scalar abilene_cost_network.node[9].core_layer 	interests[9] 	0
scalar abilene_cost_network.node[9].core_layer 	data[9] 	0
scalar abilene_cost_network.node[9].content_store 	p_hit[9] 	-nan
scalar abilene_cost_network.node[9].content_store 	hits[9] 	0
scalar abilene_cost_network.node[9].content_store 	misses[9] 	0
scalar abilene_cost_network.node[9].content_store 	decision_yes[9] 	0
scalar abilene_cost_network.node[9].content_store 	decision_no[9] 	0
scalar abilene_cost_network.node[9].content_store 	decision_ratio[9] 	0
scalar abilene_cost_network.node[10].core_layer 	interests[10] 	0
scalar abilene_cost_network.node[10].core_layer 	data[10] 	0
scalar abilene_cost_network.node[10].content_store 	p_hit[10] 	-nan
scalar abilene_cost_network.node[10].content_store 	hits[10] 	0
scalar abilene_cost_network.node[10].content_store 	misses[10] 	0
scalar abilene_cost_network.node[10].content_store 	decision_yes[10] 	0
scalar abilene_cost_network.node[10].content_store 	decision_no[10] 	0
scalar abilene_cost_network.node[10].content_store 	decision_ratio[10] 	0
scalar abilene_cost_network.client[3] 	hdistance[3] 	1.6126144139341
scalar abilene_cost_network.client[3] 	downloads[3] 	180048
scalar abilene_cost_network.client[3] 	avg_time[3] 	0.005906428496
scalar abilene_cost_network.client[3] 	interests_sent[3] 	180145
scalar abilene_cost_network.client[4] 	hdistance[4] 	2.207135300406
scalar abilene_cost_network.client[4] 	downloads[4] 	180539
scalar abilene_cost_network.client[4] 	avg_time[4] 	0.007259413275
scalar abilene_cost_network.client[4] 	interests_sent[4] 	180651
scalar abilene_cost_network.client[5] 	hdistance[5] 	2.6331772448622
scalar abilene_cost_network.client[5] 	downloads[5] 	179599
scalar abilene_cost_network.client[5] 	avg_time[5] 	0.010841492984
scalar abilene_cost_network.client[5] 	interests_sent[5] 	179747
