version 2
run General-6-20140930-18:23:32-19927
attr D costaware0.01
attr F spr
attr R lru
attr a 1
attr configname General
attr csize 1e3
attr ctlg 1e5
attr datetime 20140930-18:23:32
attr experiment General
attr inifile omnetpp.ini
attr iterationvars "$net=tiger_cost, $rep=4, $priceratiovalue=10, $weights=0.333_0.333_0.334, $lambda=100, $a=1, $ctlg=1e5, $F=spr, $ttl=10, $D=costaware0.01, $xi=1, $R=lru, $csize=1e3, $pricebits=0, $window=60, $variance=0.05, $mytime=1800"
attr iterationvars2 "$net=tiger_cost, $rep=4, $priceratiovalue=10, $weights=0.333_0.333_0.334, $lambda=100, $a=1, $ctlg=1e5, $F=spr, $ttl=10, $D=costaware0.01, $xi=1, $R=lru, $csize=1e3, $pricebits=0, $window=60, $variance=0.05, $mytime=1800, $repetition=0"
attr lambda 100
attr measurement "$net=tiger_cost, $rep=4, $priceratiovalue=10, $weights=0.333_0.333_0.334, $lambda=100, $a=1, $ctlg=1e5, $F=spr, $ttl=10, $D=costaware0.01, $xi=1, $R=lru, $csize=1e3, $pricebits=0, $window=60, $variance=0.05, $mytime=1800"
attr mytime 1800
attr net tiger_cost
attr network networks.${net=tiger_cost,dtelecom_cost}_network
attr pricebits 0
attr priceratiovalue 10
attr processid 19927
attr rep 4
attr repetition 0
attr replication #0
attr resultdir results
attr runnumber 6
attr seedset 4
attr ttl 10
attr variance 0.05
attr weights 0.333_0.333_0.334
attr window 60
attr xi 1

scalar . 	a 	1
scalar . 	csize 	1e3
scalar . 	ctlg 	1e5
scalar . 	lambda 	100
scalar . 	mytime 	1800
scalar . 	pricebits 	0
scalar . 	priceratiovalue 	10
scalar . 	rep 	4
scalar . 	ttl 	10
scalar . 	variance 	0.05
scalar . 	window 	60
scalar . 	xi 	1
scalar tiger_cost_network.content_distribution 	repo-0 	18
scalar tiger_cost_network.content_distribution 	repo-1 	16
scalar tiger_cost_network.content_distribution 	repo-2 	10
scalar tiger_cost_network.content_distribution 	client-0 	6
scalar tiger_cost_network.content_distribution 	client-1 	2
scalar tiger_cost_network.content_distribution 	client-2 	20
scalar tiger_cost_network.content_distribution 	repo-0_card 	33274
scalar tiger_cost_network.content_distribution 	repo-0_price 	0
scalar tiger_cost_network.content_distribution 	repo-1_card 	33153
scalar tiger_cost_network.content_distribution 	repo-1_price 	1
scalar tiger_cost_network.content_distribution 	repo-2_card 	33573
scalar tiger_cost_network.content_distribution 	repo-2_price 	10
scalar tiger_cost_network.statistics 	repo_popularity[0] 	0.33945880017902
scalar tiger_cost_network.statistics 	repo_popularity[1] 	0.30988277584688
scalar tiger_cost_network.statistics 	repo_popularity[2] 	0.35065842397411
scalar tiger_cost_network.statistics 	stabilization_time 	36060
scalar tiger_cost_network.statistics 	p_hit 	0.10134959485462
scalar tiger_cost_network.statistics 	interests 	78333.272727273
scalar tiger_cost_network.statistics 	data 	53787.409090909
scalar tiger_cost_network.statistics 	hdistance 	2.869569458013
scalar tiger_cost_network.statistics 	avg_time 	0.000923225428
scalar tiger_cost_network.statistics 	downloads 	539581
scalar tiger_cost_network.statistics 	total_cost 	1010138
scalar tiger_cost_network.statistics 	total_replicas 	100000
scalar tiger_cost_network.statistics 	inner_hit 	0.32388279053562
scalar tiger_cost_network.node[0].core_layer 	interests[0] 	61240
scalar tiger_cost_network.node[0].core_layer 	data[0] 	61240
scalar tiger_cost_network.node[0].core_layer 	repo_int[0] 	364820
scalar tiger_cost_network.node[0].content_store 	p_hit[0] 	0
scalar tiger_cost_network.node[0].content_store 	hits[0] 	0
scalar tiger_cost_network.node[0].content_store 	misses[0] 	61240
scalar tiger_cost_network.node[0].content_store 	decision_yes[0] 	0
scalar tiger_cost_network.node[0].content_store 	decision_no[0] 	61240
scalar tiger_cost_network.node[0].content_store 	decision_ratio[0] 	0
scalar tiger_cost_network.node[0].content_store 	correction_factor[0] 	0.0027225701061802
scalar tiger_cost_network.node[0].content_store 	kappa[0] 	1
scalar tiger_cost_network.node[1].core_layer 	interests[1] 	160767
scalar tiger_cost_network.node[1].core_layer 	data[1] 	112460
scalar tiger_cost_network.node[1].content_store 	p_hit[1] 	0.30045967144999
scalar tiger_cost_network.node[1].content_store 	hits[1] 	48304
scalar tiger_cost_network.node[1].content_store 	misses[1] 	112463
scalar tiger_cost_network.node[1].content_store 	decision_yes[1] 	2445
scalar tiger_cost_network.node[1].content_store 	decision_no[1] 	110015
scalar tiger_cost_network.node[1].content_store 	decision_ratio[1] 	0.021741063489241
scalar tiger_cost_network.node[1].content_store 	correction_factor[1] 	0.0027225701061802
scalar tiger_cost_network.node[1].content_store 	kappa[1] 	1
scalar tiger_cost_network.node[2].core_layer 	interests[2] 	179904
scalar tiger_cost_network.node[2].core_layer 	data[2] 	169462
scalar tiger_cost_network.node[2].content_store 	p_hit[2] 	0.056691346495909
scalar tiger_cost_network.node[2].content_store 	hits[2] 	10199
scalar tiger_cost_network.node[2].content_store 	misses[2] 	169705
scalar tiger_cost_network.node[2].content_store 	decision_yes[2] 	939
scalar tiger_cost_network.node[2].content_store 	decision_no[2] 	168523
scalar tiger_cost_network.node[2].content_store 	decision_ratio[2] 	0.0055410652535672
scalar tiger_cost_network.node[2].content_store 	correction_factor[2] 	0.0027225701061802
scalar tiger_cost_network.node[2].content_store 	kappa[2] 	1
scalar tiger_cost_network.node[3].core_layer 	interests[3] 	51788
scalar tiger_cost_network.node[3].core_layer 	data[3] 	40309
scalar tiger_cost_network.node[3].content_store 	p_hit[3] 	0.22165366494169
scalar tiger_cost_network.node[3].content_store 	hits[3] 	11479
scalar tiger_cost_network.node[3].content_store 	misses[3] 	40309
scalar tiger_cost_network.node[3].content_store 	decision_yes[3] 	59
scalar tiger_cost_network.node[3].content_store 	decision_no[3] 	40250
scalar tiger_cost_network.node[3].content_store 	decision_ratio[3] 	0.0014636929717929
scalar tiger_cost_network.node[3].content_store 	correction_factor[3] 	0.0027225701061802
scalar tiger_cost_network.node[3].content_store 	kappa[3] 	1
scalar tiger_cost_network.node[4].core_layer 	interests[4] 	40309
scalar tiger_cost_network.node[4].core_layer 	data[4] 	36148
scalar tiger_cost_network.node[4].content_store 	p_hit[4] 	0.10322756704458
scalar tiger_cost_network.node[4].content_store 	hits[4] 	4161
scalar tiger_cost_network.node[4].content_store 	misses[4] 	36148
scalar tiger_cost_network.node[4].content_store 	decision_yes[4] 	77
scalar tiger_cost_network.node[4].content_store 	decision_no[4] 	36071
scalar tiger_cost_network.node[4].content_store 	decision_ratio[4] 	0.0021301316808675
scalar tiger_cost_network.node[4].content_store 	correction_factor[4] 	0.0027225701061802
scalar tiger_cost_network.node[4].content_store 	kappa[4] 	1
scalar tiger_cost_network.node[5].core_layer 	interests[5] 	0
scalar tiger_cost_network.node[5].core_layer 	data[5] 	0
scalar tiger_cost_network.node[5].content_store 	p_hit[5] 	-nan
scalar tiger_cost_network.node[5].content_store 	hits[5] 	0
scalar tiger_cost_network.node[5].content_store 	misses[5] 	0
scalar tiger_cost_network.node[5].content_store 	decision_yes[5] 	0
scalar tiger_cost_network.node[5].content_store 	decision_no[5] 	0
scalar tiger_cost_network.node[5].content_store 	decision_ratio[5] 	0
scalar tiger_cost_network.node[5].content_store 	correction_factor[5] 	0.0027225701061802
scalar tiger_cost_network.node[5].content_store 	kappa[5] 	1
scalar tiger_cost_network.node[6].core_layer 	interests[6] 	228260
scalar tiger_cost_network.node[6].core_layer 	data[6] 	207234
scalar tiger_cost_network.node[6].content_store 	p_hit[6] 	0.09156663453956
scalar tiger_cost_network.node[6].content_store 	hits[6] 	20901
scalar tiger_cost_network.node[6].content_store 	misses[6] 	207359
scalar tiger_cost_network.node[6].content_store 	decision_yes[6] 	974
scalar tiger_cost_network.node[6].content_store 	decision_no[6] 	206260
scalar tiger_cost_network.node[6].content_store 	decision_ratio[6] 	0.0047000009650926
scalar tiger_cost_network.node[6].content_store 	correction_factor[6] 	0.0027225701061802
scalar tiger_cost_network.node[6].content_store 	kappa[6] 	1
scalar tiger_cost_network.node[7].core_layer 	interests[7] 	169024
scalar tiger_cost_network.node[7].core_layer 	data[7] 	157942
scalar tiger_cost_network.node[7].content_store 	p_hit[7] 	0.064990770541462
scalar tiger_cost_network.node[7].content_store 	hits[7] 	10985
scalar tiger_cost_network.node[7].content_store 	misses[7] 	158039
scalar tiger_cost_network.node[7].content_store 	decision_yes[7] 	1749
scalar tiger_cost_network.node[7].content_store 	decision_no[7] 	156193
scalar tiger_cost_network.node[7].content_store 	decision_ratio[7] 	0.011073685276874
scalar tiger_cost_network.node[7].content_store 	correction_factor[7] 	0.0027225701061802
scalar tiger_cost_network.node[7].content_store 	kappa[7] 	1
scalar tiger_cost_network.node[8].core_layer 	interests[8] 	109754
scalar tiger_cost_network.node[8].core_layer 	data[8] 	104333
scalar tiger_cost_network.node[8].content_store 	p_hit[8] 	0.049392277274632
scalar tiger_cost_network.node[8].content_store 	hits[8] 	5421
scalar tiger_cost_network.node[8].content_store 	misses[8] 	104333
scalar tiger_cost_network.node[8].content_store 	decision_yes[8] 	1554
scalar tiger_cost_network.node[8].content_store 	decision_no[8] 	102779
scalar tiger_cost_network.node[8].content_store 	decision_ratio[8] 	0.014894616276729
scalar tiger_cost_network.node[8].content_store 	correction_factor[8] 	0.0027225701061802
scalar tiger_cost_network.node[8].content_store 	kappa[8] 	1
scalar tiger_cost_network.node[9].core_layer 	interests[9] 	0
scalar tiger_cost_network.node[9].core_layer 	data[9] 	0
scalar tiger_cost_network.node[9].content_store 	p_hit[9] 	-nan
scalar tiger_cost_network.node[9].content_store 	hits[9] 	0
scalar tiger_cost_network.node[9].content_store 	misses[9] 	0
scalar tiger_cost_network.node[9].content_store 	decision_yes[9] 	0
scalar tiger_cost_network.node[9].content_store 	decision_no[9] 	0
scalar tiger_cost_network.node[9].content_store 	decision_ratio[9] 	0
scalar tiger_cost_network.node[9].content_store 	correction_factor[9] 	0.0027225701061802
scalar tiger_cost_network.node[9].content_store 	kappa[9] 	1
scalar tiger_cost_network.node[10].core_layer 	interests[10] 	112460
scalar tiger_cost_network.node[10].core_layer 	repo_load[10] 	92070
scalar tiger_cost_network.node[10].core_layer 	data[10] 	0
scalar tiger_cost_network.node[10].content_store 	p_hit[10] 	0.18130890983461
scalar tiger_cost_network.node[10].content_store 	hits[10] 	20390
scalar tiger_cost_network.node[10].content_store 	misses[10] 	92070
scalar tiger_cost_network.node[10].content_store 	decision_yes[10] 	2440
scalar tiger_cost_network.node[10].content_store 	decision_no[10] 	89630
scalar tiger_cost_network.node[10].content_store 	decision_ratio[10] 	0.026501574888672
scalar tiger_cost_network.node[10].content_store 	correction_factor[10] 	0.0027225701061802
scalar tiger_cost_network.node[10].content_store 	kappa[10] 	1
scalar tiger_cost_network.node[11].core_layer 	interests[11] 	0
scalar tiger_cost_network.node[11].core_layer 	data[11] 	0
scalar tiger_cost_network.node[11].content_store 	p_hit[11] 	-nan
scalar tiger_cost_network.node[11].content_store 	hits[11] 	0
scalar tiger_cost_network.node[11].content_store 	misses[11] 	0
scalar tiger_cost_network.node[11].content_store 	decision_yes[11] 	0
scalar tiger_cost_network.node[11].content_store 	decision_no[11] 	0
scalar tiger_cost_network.node[11].content_store 	decision_ratio[11] 	0
scalar tiger_cost_network.node[11].content_store 	correction_factor[11] 	0.0027225701061802
scalar tiger_cost_network.node[11].content_store 	kappa[11] 	1
scalar tiger_cost_network.node[12].core_layer 	interests[12] 	61240
scalar tiger_cost_network.node[12].core_layer 	data[12] 	61240
scalar tiger_cost_network.node[12].content_store 	p_hit[12] 	0
scalar tiger_cost_network.node[12].content_store 	hits[12] 	0
scalar tiger_cost_network.node[12].content_store 	misses[12] 	61240
scalar tiger_cost_network.node[12].content_store 	decision_yes[12] 	0
scalar tiger_cost_network.node[12].content_store 	decision_no[12] 	61240
scalar tiger_cost_network.node[12].content_store 	decision_ratio[12] 	0
scalar tiger_cost_network.node[12].content_store 	correction_factor[12] 	0.0027225701061802
scalar tiger_cost_network.node[12].content_store 	kappa[12] 	1
scalar tiger_cost_network.node[13].core_layer 	interests[13] 	0
scalar tiger_cost_network.node[13].core_layer 	data[13] 	0
scalar tiger_cost_network.node[13].content_store 	p_hit[13] 	-nan
scalar tiger_cost_network.node[13].content_store 	hits[13] 	0
scalar tiger_cost_network.node[13].content_store 	misses[13] 	0
scalar tiger_cost_network.node[13].content_store 	decision_yes[13] 	0
scalar tiger_cost_network.node[13].content_store 	decision_no[13] 	0
scalar tiger_cost_network.node[13].content_store 	decision_ratio[13] 	0
scalar tiger_cost_network.node[13].content_store 	correction_factor[13] 	0.0027225701061802
scalar tiger_cost_network.node[13].content_store 	kappa[13] 	1
scalar tiger_cost_network.node[14].core_layer 	interests[14] 	0
scalar tiger_cost_network.node[14].core_layer 	data[14] 	0
scalar tiger_cost_network.node[14].content_store 	p_hit[14] 	-nan
scalar tiger_cost_network.node[14].content_store 	hits[14] 	0
scalar tiger_cost_network.node[14].content_store 	misses[14] 	0
scalar tiger_cost_network.node[14].content_store 	decision_yes[14] 	0
scalar tiger_cost_network.node[14].content_store 	decision_no[14] 	0
scalar tiger_cost_network.node[14].content_store 	decision_ratio[14] 	0
scalar tiger_cost_network.node[14].content_store 	correction_factor[14] 	0.0027225701061802
scalar tiger_cost_network.node[14].content_store 	kappa[14] 	1
scalar tiger_cost_network.node[15].core_layer 	interests[15] 	0
scalar tiger_cost_network.node[15].core_layer 	data[15] 	0
scalar tiger_cost_network.node[15].content_store 	p_hit[15] 	-nan
scalar tiger_cost_network.node[15].content_store 	hits[15] 	0
scalar tiger_cost_network.node[15].content_store 	misses[15] 	0
scalar tiger_cost_network.node[15].content_store 	decision_yes[15] 	0
scalar tiger_cost_network.node[15].content_store 	decision_no[15] 	0
scalar tiger_cost_network.node[15].content_store 	decision_ratio[15] 	0
scalar tiger_cost_network.node[15].content_store 	correction_factor[15] 	0.0027225701061802
scalar tiger_cost_network.node[15].content_store 	kappa[15] 	1
scalar tiger_cost_network.node[16].core_layer 	interests[16] 	124444
scalar tiger_cost_network.node[16].core_layer 	repo_load[16] 	89438
scalar tiger_cost_network.node[16].core_layer 	data[16] 	0
scalar tiger_cost_network.node[16].content_store 	p_hit[16] 	0.28129921892578
scalar tiger_cost_network.node[16].content_store 	hits[16] 	35006
scalar tiger_cost_network.node[16].content_store 	misses[16] 	89438
scalar tiger_cost_network.node[16].content_store 	decision_yes[16] 	218
scalar tiger_cost_network.node[16].content_store 	decision_no[16] 	89220
scalar tiger_cost_network.node[16].content_store 	decision_ratio[16] 	0.0024374426977347
scalar tiger_cost_network.node[16].content_store 	correction_factor[16] 	0.0027225701061802
scalar tiger_cost_network.node[16].content_store 	kappa[16] 	1
scalar tiger_cost_network.node[17].core_layer 	interests[17] 	60797
scalar tiger_cost_network.node[17].core_layer 	data[17] 	60797
scalar tiger_cost_network.node[17].content_store 	p_hit[17] 	0
scalar tiger_cost_network.node[17].content_store 	hits[17] 	0
scalar tiger_cost_network.node[17].content_store 	misses[17] 	60797
scalar tiger_cost_network.node[17].content_store 	decision_yes[17] 	0
scalar tiger_cost_network.node[17].content_store 	decision_no[17] 	60797
scalar tiger_cost_network.node[17].content_store 	decision_ratio[17] 	0
scalar tiger_cost_network.node[17].content_store 	correction_factor[17] 	0.0027225701061802
scalar tiger_cost_network.node[17].content_store 	kappa[17] 	1
scalar tiger_cost_network.node[18].core_layer 	interests[18] 	183312
scalar tiger_cost_network.node[18].core_layer 	repo_load[18] 	183312
scalar tiger_cost_network.node[18].core_layer 	data[18] 	0
scalar tiger_cost_network.node[18].content_store 	p_hit[18] 	0
scalar tiger_cost_network.node[18].content_store 	hits[18] 	0
scalar tiger_cost_network.node[18].content_store 	misses[18] 	183312
scalar tiger_cost_network.node[18].content_store 	decision_yes[18] 	0
scalar tiger_cost_network.node[18].content_store 	decision_no[18] 	183312
scalar tiger_cost_network.node[18].content_store 	decision_ratio[18] 	0
scalar tiger_cost_network.node[18].content_store 	correction_factor[18] 	0.0027225701061802
scalar tiger_cost_network.node[18].content_store 	kappa[18] 	1
scalar tiger_cost_network.node[19].core_layer 	interests[19] 	0
scalar tiger_cost_network.node[19].core_layer 	data[19] 	0
scalar tiger_cost_network.node[19].content_store 	p_hit[19] 	-nan
scalar tiger_cost_network.node[19].content_store 	hits[19] 	0
scalar tiger_cost_network.node[19].content_store 	misses[19] 	0
scalar tiger_cost_network.node[19].content_store 	decision_yes[19] 	0
scalar tiger_cost_network.node[19].content_store 	decision_no[19] 	0
scalar tiger_cost_network.node[19].content_store 	decision_ratio[19] 	0
scalar tiger_cost_network.node[19].content_store 	correction_factor[19] 	0.0027225701061802
scalar tiger_cost_network.node[19].content_store 	kappa[19] 	1
scalar tiger_cost_network.node[20].core_layer 	interests[20] 	180033
scalar tiger_cost_network.node[20].core_layer 	data[20] 	172158
scalar tiger_cost_network.node[20].content_store 	p_hit[20] 	0.043397599329012
scalar tiger_cost_network.node[20].content_store 	hits[20] 	7813
scalar tiger_cost_network.node[20].content_store 	misses[20] 	172220
scalar tiger_cost_network.node[20].content_store 	decision_yes[20] 	893
scalar tiger_cost_network.node[20].content_store 	decision_no[20] 	171265
scalar tiger_cost_network.node[20].content_store 	decision_ratio[20] 	0.0051870955749951
scalar tiger_cost_network.node[20].content_store 	correction_factor[20] 	0.0027225701061802
scalar tiger_cost_network.node[20].content_store 	kappa[20] 	1
scalar tiger_cost_network.node[21].core_layer 	interests[21] 	0
scalar tiger_cost_network.node[21].core_layer 	data[21] 	0
scalar tiger_cost_network.node[21].content_store 	p_hit[21] 	-nan
scalar tiger_cost_network.node[21].content_store 	hits[21] 	0
scalar tiger_cost_network.node[21].content_store 	misses[21] 	0
scalar tiger_cost_network.node[21].content_store 	decision_yes[21] 	0
scalar tiger_cost_network.node[21].content_store 	decision_no[21] 	0
scalar tiger_cost_network.node[21].content_store 	decision_ratio[21] 	0
scalar tiger_cost_network.node[21].content_store 	correction_factor[21] 	0.0027225701061802
scalar tiger_cost_network.node[21].content_store 	kappa[21] 	1
scalar tiger_cost_network.client[2] 	hdistance[2] 	2.9408664095157
scalar tiger_cost_network.client[2] 	downloads[2] 	179661
scalar tiger_cost_network.client[2] 	avg_time[2] 	0.00123671944
scalar tiger_cost_network.client[6] 	hdistance[6] 	2.735736236378
scalar tiger_cost_network.client[6] 	downloads[6] 	179949
scalar tiger_cost_network.client[6] 	avg_time[6] 	0.000763480679
scalar tiger_cost_network.client[20] 	hdistance[20] 	2.9321057281451
scalar tiger_cost_network.client[20] 	downloads[20] 	179971
scalar tiger_cost_network.client[20] 	avg_time[20] 	0.000769476167
