version 2
run General-24-20140908-17:38:57-16938
attr D costprobprodcorr0.01
attr F spr
attr R lru
attr a 1
attr configname General
attr csize 1e3
attr ctlg 1e5
attr datetime 20140908-17:38:57
attr experiment General
attr inifile omnetpp.ini
attr iterationvars "$net=tiger_cost, $rep=20, $priceratiovalue=10, $weights=0.333_0.333_0.334, $lambda=100, $a=1, $ctlg=1e5, $F=spr, $ttl=10, $D=costprobprodcorr0.01, $xi=1, $R=lru, $csize=1e3, $pricebits=0, $window=60, $variance=0.05, $mytime=1800"
attr iterationvars2 "$net=tiger_cost, $rep=20, $priceratiovalue=10, $weights=0.333_0.333_0.334, $lambda=100, $a=1, $ctlg=1e5, $F=spr, $ttl=10, $D=costprobprodcorr0.01, $xi=1, $R=lru, $csize=1e3, $pricebits=0, $window=60, $variance=0.05, $mytime=1800, $repetition=0"
attr lambda 100
attr measurement "$net=tiger_cost, $rep=20, $priceratiovalue=10, $weights=0.333_0.333_0.334, $lambda=100, $a=1, $ctlg=1e5, $F=spr, $ttl=10, $D=costprobprodcorr0.01, $xi=1, $R=lru, $csize=1e3, $pricebits=0, $window=60, $variance=0.05, $mytime=1800"
attr mytime 1800
attr net tiger_cost
attr network networks.${net=level3_cost,tiger_cost,dtelecom_cost}_network
attr pricebits 0
attr priceratiovalue 10
attr processid 16938
attr rep 20
attr repetition 0
attr replication #0
attr resultdir results
attr runnumber 24
attr seedset 20
attr ttl 10
attr variance 0.05
attr weights 0.333_0.333_0.334
attr window 60
attr xi 1

scalar . 	a 	1
scalar . 	csize 	1e3
scalar . 	ctlg 	1e5
scalar . 	lambda 	100
scalar . 	mytime 	1800
scalar . 	pricebits 	0
scalar . 	priceratiovalue 	10
scalar . 	rep 	20
scalar . 	ttl 	10
scalar . 	variance 	0.05
scalar . 	window 	60
scalar . 	xi 	1
scalar tiger_cost_network.content_distribution 	repo-0 	3
scalar tiger_cost_network.content_distribution 	repo-1 	18
scalar tiger_cost_network.content_distribution 	repo-2 	2
scalar tiger_cost_network.content_distribution 	client-0 	15
scalar tiger_cost_network.content_distribution 	client-1 	2
scalar tiger_cost_network.content_distribution 	client-2 	10
scalar tiger_cost_network.content_distribution 	repo-0_card 	33323
scalar tiger_cost_network.content_distribution 	repo-0_price 	0
scalar tiger_cost_network.content_distribution 	repo-1_card 	33295
scalar tiger_cost_network.content_distribution 	repo-1_price 	1
scalar tiger_cost_network.content_distribution 	repo-2_card 	33382
scalar tiger_cost_network.content_distribution 	repo-2_price 	10
scalar tiger_cost_network.statistics 	repo_popularity[0] 	0.32913833141561
scalar tiger_cost_network.statistics 	repo_popularity[1] 	0.36392115774491
scalar tiger_cost_network.statistics 	repo_popularity[2] 	0.3069405108395
scalar tiger_cost_network.statistics 	stabilization_time 	36060
scalar tiger_cost_network.statistics 	p_hit 	0.11150905643054
scalar tiger_cost_network.statistics 	interests 	70399.5
scalar tiger_cost_network.statistics 	data 	45799.227272727
scalar tiger_cost_network.statistics 	hdistance 	2.5439466003982
scalar tiger_cost_network.statistics 	avg_time 	0.000630773767
scalar tiger_cost_network.statistics 	downloads 	540743
scalar tiger_cost_network.statistics 	total_cost 	1103983
scalar tiger_cost_network.statistics 	total_replicas 	100000
scalar tiger_cost_network.statistics 	inner_hit 	0.31964167820943
scalar tiger_cost_network.statistics 	interests_sent 	541206
scalar tiger_cost_network.node[0].core_layer 	interests[0] 	120698
scalar tiger_cost_network.node[0].core_layer 	data[0] 	111738
scalar tiger_cost_network.node[0].core_layer 	repo_int[0] 	367899
scalar tiger_cost_network.node[0].content_store 	p_hit[0] 	0.073422923329301
scalar tiger_cost_network.node[0].content_store 	hits[0] 	8862
scalar tiger_cost_network.node[0].content_store 	misses[0] 	111836
scalar tiger_cost_network.node[0].content_store 	decision_yes[0] 	178
scalar tiger_cost_network.node[0].content_store 	decision_no[0] 	111560
scalar tiger_cost_network.node[0].content_store 	decision_ratio[0] 	0.0015930122250264
scalar tiger_cost_network.node[0].content_store 	correction_factor[0] 	0.0027225701061802
scalar tiger_cost_network.node[0].content_store 	xi[0] 	1
scalar tiger_cost_network.node[1].core_layer 	interests[1] 	103994
scalar tiger_cost_network.node[1].core_layer 	data[1] 	98501
scalar tiger_cost_network.node[1].content_store 	p_hit[1] 	0.052820355020482
scalar tiger_cost_network.node[1].content_store 	hits[1] 	5493
scalar tiger_cost_network.node[1].content_store 	misses[1] 	98501
scalar tiger_cost_network.node[1].content_store 	decision_yes[1] 	888
scalar tiger_cost_network.node[1].content_store 	decision_no[1] 	97613
scalar tiger_cost_network.node[1].content_store 	decision_ratio[1] 	0.0090151369021634
scalar tiger_cost_network.node[1].content_store 	correction_factor[1] 	0.0027225701061802
scalar tiger_cost_network.node[1].content_store 	xi[1] 	1
scalar tiger_cost_network.node[2].core_layer 	interests[2] 	318456
scalar tiger_cost_network.node[2].core_layer 	repo_load[2] 	101601
scalar tiger_cost_network.node[2].core_layer 	data[2] 	184799
scalar tiger_cost_network.node[2].content_store 	p_hit[2] 	0.099809706835481
scalar tiger_cost_network.node[2].content_store 	hits[2] 	31785
scalar tiger_cost_network.node[2].content_store 	misses[2] 	286671
scalar tiger_cost_network.node[2].content_store 	decision_yes[2] 	2866
scalar tiger_cost_network.node[2].content_store 	decision_no[2] 	283534
scalar tiger_cost_network.node[2].content_store 	decision_ratio[2] 	0.010006983240223
scalar tiger_cost_network.node[2].content_store 	correction_factor[2] 	0.0027225701061802
scalar tiger_cost_network.node[2].content_store 	xi[2] 	1
scalar tiger_cost_network.node[3].core_layer 	interests[3] 	223494
scalar tiger_cost_network.node[3].core_layer 	repo_load[3] 	178325
scalar tiger_cost_network.node[3].core_layer 	data[3] 	39262
scalar tiger_cost_network.node[3].content_store 	p_hit[3] 	0.02643023973798
scalar tiger_cost_network.node[3].content_store 	hits[3] 	5907
scalar tiger_cost_network.node[3].content_store 	misses[3] 	217587
scalar tiger_cost_network.node[3].content_store 	decision_yes[3] 	876
scalar tiger_cost_network.node[3].content_store 	decision_no[3] 	216711
scalar tiger_cost_network.node[3].content_store 	decision_ratio[3] 	0.0040259758165699
scalar tiger_cost_network.node[3].content_store 	correction_factor[3] 	0.0027225701061802
scalar tiger_cost_network.node[3].content_store 	xi[3] 	1
scalar tiger_cost_network.node[4].core_layer 	interests[4] 	0
scalar tiger_cost_network.node[4].core_layer 	data[4] 	0
scalar tiger_cost_network.node[4].content_store 	p_hit[4] 	-nan
scalar tiger_cost_network.node[4].content_store 	hits[4] 	0
scalar tiger_cost_network.node[4].content_store 	misses[4] 	0
scalar tiger_cost_network.node[4].content_store 	decision_yes[4] 	0
scalar tiger_cost_network.node[4].content_store 	decision_no[4] 	0
scalar tiger_cost_network.node[4].content_store 	decision_ratio[4] 	0
scalar tiger_cost_network.node[4].content_store 	correction_factor[4] 	0.0027225701061802
scalar tiger_cost_network.node[4].content_store 	xi[4] 	1
scalar tiger_cost_network.node[5].core_layer 	interests[5] 	0
scalar tiger_cost_network.node[5].core_layer 	data[5] 	0
scalar tiger_cost_network.node[5].content_store 	p_hit[5] 	-nan
scalar tiger_cost_network.node[5].content_store 	hits[5] 	0
scalar tiger_cost_network.node[5].content_store 	misses[5] 	0
scalar tiger_cost_network.node[5].content_store 	decision_yes[5] 	0
scalar tiger_cost_network.node[5].content_store 	decision_no[5] 	0
scalar tiger_cost_network.node[5].content_store 	decision_ratio[5] 	0
scalar tiger_cost_network.node[5].content_store 	correction_factor[5] 	0.0027225701061802
scalar tiger_cost_network.node[5].content_store 	xi[5] 	1
scalar tiger_cost_network.node[6].core_layer 	interests[6] 	0
scalar tiger_cost_network.node[6].core_layer 	data[6] 	0
scalar tiger_cost_network.node[6].content_store 	p_hit[6] 	-nan
scalar tiger_cost_network.node[6].content_store 	hits[6] 	0
scalar tiger_cost_network.node[6].content_store 	misses[6] 	0
scalar tiger_cost_network.node[6].content_store 	decision_yes[6] 	0
scalar tiger_cost_network.node[6].content_store 	decision_no[6] 	0
scalar tiger_cost_network.node[6].content_store 	decision_ratio[6] 	0
scalar tiger_cost_network.node[6].content_store 	correction_factor[6] 	0.0027225701061802
scalar tiger_cost_network.node[6].content_store 	xi[6] 	1
scalar tiger_cost_network.node[7].core_layer 	interests[7] 	0
scalar tiger_cost_network.node[7].core_layer 	data[7] 	0
scalar tiger_cost_network.node[7].content_store 	p_hit[7] 	-nan
scalar tiger_cost_network.node[7].content_store 	hits[7] 	0
scalar tiger_cost_network.node[7].content_store 	misses[7] 	0
scalar tiger_cost_network.node[7].content_store 	decision_yes[7] 	0
scalar tiger_cost_network.node[7].content_store 	decision_no[7] 	0
scalar tiger_cost_network.node[7].content_store 	decision_ratio[7] 	0
scalar tiger_cost_network.node[7].content_store 	correction_factor[7] 	0.0027225701061802
scalar tiger_cost_network.node[7].content_store 	xi[7] 	1
scalar tiger_cost_network.node[8].core_layer 	interests[8] 	0
scalar tiger_cost_network.node[8].core_layer 	data[8] 	0
scalar tiger_cost_network.node[8].content_store 	p_hit[8] 	-nan
scalar tiger_cost_network.node[8].content_store 	hits[8] 	0
scalar tiger_cost_network.node[8].content_store 	misses[8] 	0
scalar tiger_cost_network.node[8].content_store 	decision_yes[8] 	0
scalar tiger_cost_network.node[8].content_store 	decision_no[8] 	0
scalar tiger_cost_network.node[8].content_store 	decision_ratio[8] 	0
scalar tiger_cost_network.node[8].content_store 	correction_factor[8] 	0.0027225701061802
scalar tiger_cost_network.node[8].content_store 	xi[8] 	1
scalar tiger_cost_network.node[9].core_layer 	interests[9] 	0
scalar tiger_cost_network.node[9].core_layer 	data[9] 	0
scalar tiger_cost_network.node[9].content_store 	p_hit[9] 	-nan
scalar tiger_cost_network.node[9].content_store 	hits[9] 	0
scalar tiger_cost_network.node[9].content_store 	misses[9] 	0
scalar tiger_cost_network.node[9].content_store 	decision_yes[9] 	0
scalar tiger_cost_network.node[9].content_store 	decision_no[9] 	0
scalar tiger_cost_network.node[9].content_store 	decision_ratio[9] 	0
scalar tiger_cost_network.node[9].content_store 	correction_factor[9] 	0.0027225701061802
scalar tiger_cost_network.node[9].content_store 	xi[9] 	1
scalar tiger_cost_network.node[10].core_layer 	interests[10] 	180640
scalar tiger_cost_network.node[10].core_layer 	data[10] 	169205
scalar tiger_cost_network.node[10].content_store 	p_hit[10] 	0.062234278122232
scalar tiger_cost_network.node[10].content_store 	hits[10] 	11242
scalar tiger_cost_network.node[10].content_store 	misses[10] 	169398
scalar tiger_cost_network.node[10].content_store 	decision_yes[10] 	937
scalar tiger_cost_network.node[10].content_store 	decision_no[10] 	168268
scalar tiger_cost_network.node[10].content_store 	decision_ratio[10] 	0.0055376614166248
scalar tiger_cost_network.node[10].content_store 	correction_factor[10] 	0.0027225701061802
scalar tiger_cost_network.node[10].content_store 	xi[10] 	1
scalar tiger_cost_network.node[11].core_layer 	interests[11] 	65211
scalar tiger_cost_network.node[11].core_layer 	data[11] 	59916
scalar tiger_cost_network.node[11].content_store 	p_hit[11] 	0.081197957399825
scalar tiger_cost_network.node[11].content_store 	hits[11] 	5295
scalar tiger_cost_network.node[11].content_store 	misses[11] 	59916
scalar tiger_cost_network.node[11].content_store 	decision_yes[11] 	72
scalar tiger_cost_network.node[11].content_store 	decision_no[11] 	59844
scalar tiger_cost_network.node[11].content_store 	decision_ratio[11] 	0.0012016823552974
scalar tiger_cost_network.node[11].content_store 	correction_factor[11] 	0.0027225701061802
scalar tiger_cost_network.node[11].content_store 	xi[11] 	1
scalar tiger_cost_network.node[12].core_layer 	interests[12] 	65673
scalar tiger_cost_network.node[12].core_layer 	data[12] 	60782
scalar tiger_cost_network.node[12].content_store 	p_hit[12] 	0.074475050629635
scalar tiger_cost_network.node[12].content_store 	hits[12] 	4891
scalar tiger_cost_network.node[12].content_store 	misses[12] 	60782
scalar tiger_cost_network.node[12].content_store 	decision_yes[12] 	83
scalar tiger_cost_network.node[12].content_store 	decision_no[12] 	60699
scalar tiger_cost_network.node[12].content_store 	decision_ratio[12] 	0.0013655358494291
scalar tiger_cost_network.node[12].content_store 	correction_factor[12] 	0.0027225701061802
scalar tiger_cost_network.node[12].content_store 	xi[12] 	1
scalar tiger_cost_network.node[13].core_layer 	interests[13] 	0
scalar tiger_cost_network.node[13].core_layer 	data[13] 	0
scalar tiger_cost_network.node[13].content_store 	p_hit[13] 	-nan
scalar tiger_cost_network.node[13].content_store 	hits[13] 	0
scalar tiger_cost_network.node[13].content_store 	misses[13] 	0
scalar tiger_cost_network.node[13].content_store 	decision_yes[13] 	0
scalar tiger_cost_network.node[13].content_store 	decision_no[13] 	0
scalar tiger_cost_network.node[13].content_store 	decision_ratio[13] 	0
scalar tiger_cost_network.node[13].content_store 	correction_factor[13] 	0.0027225701061802
scalar tiger_cost_network.node[13].content_store 	xi[13] 	1
scalar tiger_cost_network.node[14].core_layer 	interests[14] 	0
scalar tiger_cost_network.node[14].core_layer 	data[14] 	0
scalar tiger_cost_network.node[14].content_store 	p_hit[14] 	-nan
scalar tiger_cost_network.node[14].content_store 	hits[14] 	0
scalar tiger_cost_network.node[14].content_store 	misses[14] 	0
scalar tiger_cost_network.node[14].content_store 	decision_yes[14] 	0
scalar tiger_cost_network.node[14].content_store 	decision_no[14] 	0
scalar tiger_cost_network.node[14].content_store 	decision_ratio[14] 	0
scalar tiger_cost_network.node[14].content_store 	correction_factor[14] 	0.0027225701061802
scalar tiger_cost_network.node[14].content_store 	xi[14] 	1
scalar tiger_cost_network.node[15].core_layer 	interests[15] 	179873
scalar tiger_cost_network.node[15].core_layer 	data[15] 	168169
scalar tiger_cost_network.node[15].content_store 	p_hit[15] 	0.0648401928027
scalar tiger_cost_network.node[15].content_store 	hits[15] 	11663
scalar tiger_cost_network.node[15].content_store 	misses[15] 	168210
scalar tiger_cost_network.node[15].content_store 	decision_yes[15] 	916
scalar tiger_cost_network.node[15].content_store 	decision_no[15] 	167253
scalar tiger_cost_network.node[15].content_store 	decision_ratio[15] 	0.0054469016287187
scalar tiger_cost_network.node[15].content_store 	correction_factor[15] 	0.0027225701061802
scalar tiger_cost_network.node[15].content_store 	xi[15] 	1
scalar tiger_cost_network.node[16].core_layer 	interests[16] 	63801
scalar tiger_cost_network.node[16].core_layer 	data[16] 	59952
scalar tiger_cost_network.node[16].content_store 	p_hit[16] 	0.060328208021818
scalar tiger_cost_network.node[16].content_store 	hits[16] 	3849
scalar tiger_cost_network.node[16].content_store 	misses[16] 	59952
scalar tiger_cost_network.node[16].content_store 	decision_yes[16] 	87
scalar tiger_cost_network.node[16].content_store 	decision_no[16] 	59865
scalar tiger_cost_network.node[16].content_store 	decision_ratio[16] 	0.001451160928743
scalar tiger_cost_network.node[16].content_store 	correction_factor[16] 	0.0027225701061802
scalar tiger_cost_network.node[16].content_store 	xi[16] 	1
scalar tiger_cost_network.node[17].core_layer 	interests[17] 	59952
scalar tiger_cost_network.node[17].core_layer 	data[17] 	55259
scalar tiger_cost_network.node[17].content_store 	p_hit[17] 	0.078279290098746
scalar tiger_cost_network.node[17].content_store 	hits[17] 	4693
scalar tiger_cost_network.node[17].content_store 	misses[17] 	55259
scalar tiger_cost_network.node[17].content_store 	decision_yes[17] 	77
scalar tiger_cost_network.node[17].content_store 	decision_no[17] 	55182
scalar tiger_cost_network.node[17].content_store 	decision_ratio[17] 	0.0013934381729673
scalar tiger_cost_network.node[17].content_store 	correction_factor[17] 	0.0027225701061802
scalar tiger_cost_network.node[17].content_store 	xi[17] 	1
scalar tiger_cost_network.node[18].core_layer 	interests[18] 	166997
scalar tiger_cost_network.node[18].core_layer 	repo_load[18] 	87973
scalar tiger_cost_network.node[18].core_layer 	data[18] 	0
scalar tiger_cost_network.node[18].content_store 	p_hit[18] 	0.4732061054989
scalar tiger_cost_network.node[18].content_store 	hits[18] 	79024
scalar tiger_cost_network.node[18].content_store 	misses[18] 	87973
scalar tiger_cost_network.node[18].content_store 	decision_yes[18] 	231
scalar tiger_cost_network.node[18].content_store 	decision_no[18] 	87742
scalar tiger_cost_network.node[18].content_store 	decision_ratio[18] 	0.0026258056449138
scalar tiger_cost_network.node[18].content_store 	correction_factor[18] 	0.0027225701061802
scalar tiger_cost_network.node[18].content_store 	xi[18] 	1
scalar tiger_cost_network.node[19].core_layer 	interests[19] 	0
scalar tiger_cost_network.node[19].core_layer 	data[19] 	0
scalar tiger_cost_network.node[19].content_store 	p_hit[19] 	-nan
scalar tiger_cost_network.node[19].content_store 	hits[19] 	0
scalar tiger_cost_network.node[19].content_store 	misses[19] 	0
scalar tiger_cost_network.node[19].content_store 	decision_yes[19] 	0
scalar tiger_cost_network.node[19].content_store 	decision_no[19] 	0
scalar tiger_cost_network.node[19].content_store 	decision_ratio[19] 	0
scalar tiger_cost_network.node[19].content_store 	correction_factor[19] 	0.0027225701061802
scalar tiger_cost_network.node[19].content_store 	xi[19] 	1
scalar tiger_cost_network.node[20].core_layer 	interests[20] 	0
scalar tiger_cost_network.node[20].core_layer 	data[20] 	0
scalar tiger_cost_network.node[20].content_store 	p_hit[20] 	-nan
scalar tiger_cost_network.node[20].content_store 	hits[20] 	0
scalar tiger_cost_network.node[20].content_store 	misses[20] 	0
scalar tiger_cost_network.node[20].content_store 	decision_yes[20] 	0
scalar tiger_cost_network.node[20].content_store 	decision_no[20] 	0
scalar tiger_cost_network.node[20].content_store 	decision_ratio[20] 	0
scalar tiger_cost_network.node[20].content_store 	correction_factor[20] 	0.0027225701061802
scalar tiger_cost_network.node[20].content_store 	xi[20] 	1
scalar tiger_cost_network.node[21].core_layer 	interests[21] 	0
scalar tiger_cost_network.node[21].core_layer 	data[21] 	0
scalar tiger_cost_network.node[21].content_store 	p_hit[21] 	-nan
scalar tiger_cost_network.node[21].content_store 	hits[21] 	0
scalar tiger_cost_network.node[21].content_store 	misses[21] 	0
scalar tiger_cost_network.node[21].content_store 	decision_yes[21] 	0
scalar tiger_cost_network.node[21].content_store 	decision_no[21] 	0
scalar tiger_cost_network.node[21].content_store 	decision_ratio[21] 	0
scalar tiger_cost_network.node[21].content_store 	correction_factor[21] 	0.0027225701061802
scalar tiger_cost_network.node[21].content_store 	xi[21] 	1
scalar tiger_cost_network.client[2] 	hdistance[2] 	2.0484805833851
scalar tiger_cost_network.client[2] 	downloads[2] 	180464
scalar tiger_cost_network.client[2] 	avg_time[2] 	0.00065753904
scalar tiger_cost_network.client[2] 	interests_sent[2] 	180693
scalar tiger_cost_network.client[10] 	hdistance[10] 	3.1225124274717
scalar tiger_cost_network.client[10] 	downloads[10] 	180447
scalar tiger_cost_network.client[10] 	avg_time[10] 	0.000856672536
scalar tiger_cost_network.client[10] 	interests_sent[10] 	180640
scalar tiger_cost_network.client[15] 	hdistance[15] 	2.4608467903377
scalar tiger_cost_network.client[15] 	downloads[15] 	179832
scalar tiger_cost_network.client[15] 	avg_time[15] 	0.000378109725
scalar tiger_cost_network.client[15] 	interests_sent[15] 	179873
