version 2
run General-6-20140930-15:23:23-19607
attr D costaware0.01
attr F spr
attr R lru
attr a 1
attr configname General
attr csize 1e3
attr ctlg 1e5
attr datetime 20140930-15:23:23
attr experiment General
attr inifile omnetpp.ini
attr iterationvars "$net=tiger_cost, $rep=14, $priceratiovalue=10, $weights=0.333_0.333_0.334, $lambda=100, $a=1, $ctlg=1e5, $F=spr, $ttl=10, $D=costaware0.01, $xi=1, $R=lru, $csize=1e3, $pricebits=0, $window=60, $variance=0.05, $mytime=1800"
attr iterationvars2 "$net=tiger_cost, $rep=14, $priceratiovalue=10, $weights=0.333_0.333_0.334, $lambda=100, $a=1, $ctlg=1e5, $F=spr, $ttl=10, $D=costaware0.01, $xi=1, $R=lru, $csize=1e3, $pricebits=0, $window=60, $variance=0.05, $mytime=1800, $repetition=0"
attr lambda 100
attr measurement "$net=tiger_cost, $rep=14, $priceratiovalue=10, $weights=0.333_0.333_0.334, $lambda=100, $a=1, $ctlg=1e5, $F=spr, $ttl=10, $D=costaware0.01, $xi=1, $R=lru, $csize=1e3, $pricebits=0, $window=60, $variance=0.05, $mytime=1800"
attr mytime 1800
attr net tiger_cost
attr network networks.${net=level3_cost,tiger_cost,dtelecom_cost}_network
attr pricebits 0
attr priceratiovalue 10
attr processid 19607
attr rep 14
attr repetition 0
attr replication #0
attr resultdir results
attr runnumber 6
attr seedset 14
attr ttl 10
attr variance 0.05
attr weights 0.333_0.333_0.334
attr window 60
attr xi 1

scalar . 	a 	1
scalar . 	csize 	1e3
scalar . 	ctlg 	1e5
scalar . 	lambda 	100
scalar . 	mytime 	1800
scalar . 	pricebits 	0
scalar . 	priceratiovalue 	10
scalar . 	rep 	14
scalar . 	ttl 	10
scalar . 	variance 	0.05
scalar . 	window 	60
scalar . 	xi 	1
scalar tiger_cost_network.content_distribution 	repo-0 	4
scalar tiger_cost_network.content_distribution 	repo-1 	0
scalar tiger_cost_network.content_distribution 	repo-2 	17
scalar tiger_cost_network.content_distribution 	client-0 	16
scalar tiger_cost_network.content_distribution 	client-1 	19
scalar tiger_cost_network.content_distribution 	client-2 	17
scalar tiger_cost_network.content_distribution 	repo-0_card 	32960
scalar tiger_cost_network.content_distribution 	repo-0_price 	10
scalar tiger_cost_network.content_distribution 	repo-1_card 	33557
scalar tiger_cost_network.content_distribution 	repo-1_price 	1
scalar tiger_cost_network.content_distribution 	repo-2_card 	33483
scalar tiger_cost_network.content_distribution 	repo-2_price 	0
scalar tiger_cost_network.statistics 	repo_popularity[0] 	0.30774250677815
scalar tiger_cost_network.statistics 	repo_popularity[1] 	0.28614157627629
scalar tiger_cost_network.statistics 	repo_popularity[2] 	0.40611591694558
scalar tiger_cost_network.statistics 	stabilization_time 	36060
scalar tiger_cost_network.statistics 	p_hit 	0.10314356744207
scalar tiger_cost_network.statistics 	interests 	57246.772727273
scalar tiger_cost_network.statistics 	data 	32674.045454545
scalar tiger_cost_network.statistics 	hdistance 	2.0893760186717
scalar tiger_cost_network.statistics 	avg_time 	0.000252996639
scalar tiger_cost_network.statistics 	downloads 	540538
scalar tiger_cost_network.statistics 	total_cost 	1054008
scalar tiger_cost_network.statistics 	total_replicas 	100000
scalar tiger_cost_network.statistics 	inner_hit 	0.2403549796684
scalar tiger_cost_network.node[0].core_layer 	interests[0] 	119457
scalar tiger_cost_network.node[0].core_layer 	repo_load[0] 	94888
scalar tiger_cost_network.node[0].core_layer 	data[0] 	0
scalar tiger_cost_network.node[0].core_layer 	repo_int[0] 	410617
scalar tiger_cost_network.node[0].content_store 	p_hit[0] 	0.20567233397792
scalar tiger_cost_network.node[0].content_store 	hits[0] 	24569
scalar tiger_cost_network.node[0].content_store 	misses[0] 	94888
scalar tiger_cost_network.node[0].content_store 	decision_yes[0] 	236
scalar tiger_cost_network.node[0].content_store 	decision_no[0] 	94652
scalar tiger_cost_network.node[0].content_store 	decision_ratio[0] 	0.0024871427367001
scalar tiger_cost_network.node[0].content_store 	correction_factor[0] 	0.0027225701061802
scalar tiger_cost_network.node[0].content_store 	kappa[0] 	1
scalar tiger_cost_network.node[1].core_layer 	interests[1] 	0
scalar tiger_cost_network.node[1].core_layer 	data[1] 	0
scalar tiger_cost_network.node[1].content_store 	p_hit[1] 	-nan
scalar tiger_cost_network.node[1].content_store 	hits[1] 	0
scalar tiger_cost_network.node[1].content_store 	misses[1] 	0
scalar tiger_cost_network.node[1].content_store 	decision_yes[1] 	0
scalar tiger_cost_network.node[1].content_store 	decision_no[1] 	0
scalar tiger_cost_network.node[1].content_store 	decision_ratio[1] 	0
scalar tiger_cost_network.node[1].content_store 	correction_factor[1] 	0.0027225701061802
scalar tiger_cost_network.node[1].content_store 	kappa[1] 	1
scalar tiger_cost_network.node[2].core_layer 	interests[2] 	0
scalar tiger_cost_network.node[2].core_layer 	data[2] 	0
scalar tiger_cost_network.node[2].content_store 	p_hit[2] 	-nan
scalar tiger_cost_network.node[2].content_store 	hits[2] 	0
scalar tiger_cost_network.node[2].content_store 	misses[2] 	0
scalar tiger_cost_network.node[2].content_store 	decision_yes[2] 	0
scalar tiger_cost_network.node[2].content_store 	decision_no[2] 	0
scalar tiger_cost_network.node[2].content_store 	decision_ratio[2] 	0
scalar tiger_cost_network.node[2].content_store 	correction_factor[2] 	0.0027225701061802
scalar tiger_cost_network.node[2].content_store 	kappa[2] 	1
scalar tiger_cost_network.node[3].core_layer 	interests[3] 	0
scalar tiger_cost_network.node[3].core_layer 	data[3] 	0
scalar tiger_cost_network.node[3].content_store 	p_hit[3] 	-nan
scalar tiger_cost_network.node[3].content_store 	hits[3] 	0
scalar tiger_cost_network.node[3].content_store 	misses[3] 	0
scalar tiger_cost_network.node[3].content_store 	decision_yes[3] 	0
scalar tiger_cost_network.node[3].content_store 	decision_no[3] 	0
scalar tiger_cost_network.node[3].content_store 	decision_ratio[3] 	0
scalar tiger_cost_network.node[3].content_store 	correction_factor[3] 	0.0027225701061802
scalar tiger_cost_network.node[3].content_store 	kappa[3] 	1
scalar tiger_cost_network.node[4].core_layer 	interests[4] 	129577
scalar tiger_cost_network.node[4].core_layer 	repo_load[4] 	95912
scalar tiger_cost_network.node[4].core_layer 	data[4] 	0
scalar tiger_cost_network.node[4].content_store 	p_hit[4] 	0.25980691017696
scalar tiger_cost_network.node[4].content_store 	hits[4] 	33665
scalar tiger_cost_network.node[4].content_store 	misses[4] 	95912
scalar tiger_cost_network.node[4].content_store 	decision_yes[4] 	2561
scalar tiger_cost_network.node[4].content_store 	decision_no[4] 	93351
scalar tiger_cost_network.node[4].content_store 	decision_ratio[4] 	0.026701559763116
scalar tiger_cost_network.node[4].content_store 	correction_factor[4] 	0.0027225701061802
scalar tiger_cost_network.node[4].content_store 	kappa[4] 	1
scalar tiger_cost_network.node[5].core_layer 	interests[5] 	0
scalar tiger_cost_network.node[5].core_layer 	data[5] 	0
scalar tiger_cost_network.node[5].content_store 	p_hit[5] 	-nan
scalar tiger_cost_network.node[5].content_store 	hits[5] 	0
scalar tiger_cost_network.node[5].content_store 	misses[5] 	0
scalar tiger_cost_network.node[5].content_store 	decision_yes[5] 	0
scalar tiger_cost_network.node[5].content_store 	decision_no[5] 	0
scalar tiger_cost_network.node[5].content_store 	decision_ratio[5] 	0
scalar tiger_cost_network.node[5].content_store 	correction_factor[5] 	0.0027225701061802
scalar tiger_cost_network.node[5].content_store 	kappa[5] 	1
scalar tiger_cost_network.node[6].core_layer 	interests[6] 	0
scalar tiger_cost_network.node[6].core_layer 	data[6] 	0
scalar tiger_cost_network.node[6].content_store 	p_hit[6] 	-nan
scalar tiger_cost_network.node[6].content_store 	hits[6] 	0
scalar tiger_cost_network.node[6].content_store 	misses[6] 	0
scalar tiger_cost_network.node[6].content_store 	decision_yes[6] 	0
scalar tiger_cost_network.node[6].content_store 	decision_no[6] 	0
scalar tiger_cost_network.node[6].content_store 	decision_ratio[6] 	0
scalar tiger_cost_network.node[6].content_store 	correction_factor[6] 	0.0027225701061802
scalar tiger_cost_network.node[6].content_store 	kappa[6] 	1
scalar tiger_cost_network.node[7].core_layer 	interests[7] 	0
scalar tiger_cost_network.node[7].core_layer 	data[7] 	0
scalar tiger_cost_network.node[7].content_store 	p_hit[7] 	-nan
scalar tiger_cost_network.node[7].content_store 	hits[7] 	0
scalar tiger_cost_network.node[7].content_store 	misses[7] 	0
scalar tiger_cost_network.node[7].content_store 	decision_yes[7] 	0
scalar tiger_cost_network.node[7].content_store 	decision_no[7] 	0
scalar tiger_cost_network.node[7].content_store 	decision_ratio[7] 	0
scalar tiger_cost_network.node[7].content_store 	correction_factor[7] 	0.0027225701061802
scalar tiger_cost_network.node[7].content_store 	kappa[7] 	1
scalar tiger_cost_network.node[8].core_layer 	interests[8] 	0
scalar tiger_cost_network.node[8].core_layer 	data[8] 	0
scalar tiger_cost_network.node[8].content_store 	p_hit[8] 	-nan
scalar tiger_cost_network.node[8].content_store 	hits[8] 	0
scalar tiger_cost_network.node[8].content_store 	misses[8] 	0
scalar tiger_cost_network.node[8].content_store 	decision_yes[8] 	0
scalar tiger_cost_network.node[8].content_store 	decision_no[8] 	0
scalar tiger_cost_network.node[8].content_store 	decision_ratio[8] 	0
scalar tiger_cost_network.node[8].content_store 	correction_factor[8] 	0.0027225701061802
scalar tiger_cost_network.node[8].content_store 	kappa[8] 	1
scalar tiger_cost_network.node[9].core_layer 	interests[9] 	0
scalar tiger_cost_network.node[9].core_layer 	data[9] 	0
scalar tiger_cost_network.node[9].content_store 	p_hit[9] 	-nan
scalar tiger_cost_network.node[9].content_store 	hits[9] 	0
scalar tiger_cost_network.node[9].content_store 	misses[9] 	0
scalar tiger_cost_network.node[9].content_store 	decision_yes[9] 	0
scalar tiger_cost_network.node[9].content_store 	decision_no[9] 	0
scalar tiger_cost_network.node[9].content_store 	decision_ratio[9] 	0
scalar tiger_cost_network.node[9].content_store 	correction_factor[9] 	0.0027225701061802
scalar tiger_cost_network.node[9].content_store 	kappa[9] 	1
scalar tiger_cost_network.node[10].core_layer 	interests[10] 	0
scalar tiger_cost_network.node[10].core_layer 	data[10] 	0
scalar tiger_cost_network.node[10].content_store 	p_hit[10] 	-nan
scalar tiger_cost_network.node[10].content_store 	hits[10] 	0
scalar tiger_cost_network.node[10].content_store 	misses[10] 	0
scalar tiger_cost_network.node[10].content_store 	decision_yes[10] 	0
scalar tiger_cost_network.node[10].content_store 	decision_no[10] 	0
scalar tiger_cost_network.node[10].content_store 	decision_ratio[10] 	0
scalar tiger_cost_network.node[10].content_store 	correction_factor[10] 	0.0027225701061802
scalar tiger_cost_network.node[10].content_store 	kappa[10] 	1
scalar tiger_cost_network.node[11].core_layer 	interests[11] 	0
scalar tiger_cost_network.node[11].core_layer 	data[11] 	0
scalar tiger_cost_network.node[11].content_store 	p_hit[11] 	-nan
scalar tiger_cost_network.node[11].content_store 	hits[11] 	0
scalar tiger_cost_network.node[11].content_store 	misses[11] 	0
scalar tiger_cost_network.node[11].content_store 	decision_yes[11] 	0
scalar tiger_cost_network.node[11].content_store 	decision_no[11] 	0
scalar tiger_cost_network.node[11].content_store 	decision_ratio[11] 	0
scalar tiger_cost_network.node[11].content_store 	correction_factor[11] 	0.0027225701061802
scalar tiger_cost_network.node[11].content_store 	kappa[11] 	1
scalar tiger_cost_network.node[12].core_layer 	interests[12] 	0
scalar tiger_cost_network.node[12].core_layer 	data[12] 	0
scalar tiger_cost_network.node[12].content_store 	p_hit[12] 	-nan
scalar tiger_cost_network.node[12].content_store 	hits[12] 	0
scalar tiger_cost_network.node[12].content_store 	misses[12] 	0
scalar tiger_cost_network.node[12].content_store 	decision_yes[12] 	0
scalar tiger_cost_network.node[12].content_store 	decision_no[12] 	0
scalar tiger_cost_network.node[12].content_store 	decision_ratio[12] 	0
scalar tiger_cost_network.node[12].content_store 	correction_factor[12] 	0.0027225701061802
scalar tiger_cost_network.node[12].content_store 	kappa[12] 	1
scalar tiger_cost_network.node[13].core_layer 	interests[13] 	0
scalar tiger_cost_network.node[13].core_layer 	data[13] 	0
scalar tiger_cost_network.node[13].content_store 	p_hit[13] 	-nan
scalar tiger_cost_network.node[13].content_store 	hits[13] 	0
scalar tiger_cost_network.node[13].content_store 	misses[13] 	0
scalar tiger_cost_network.node[13].content_store 	decision_yes[13] 	0
scalar tiger_cost_network.node[13].content_store 	decision_no[13] 	0
scalar tiger_cost_network.node[13].content_store 	decision_ratio[13] 	0
scalar tiger_cost_network.node[13].content_store 	correction_factor[13] 	0.0027225701061802
scalar tiger_cost_network.node[13].content_store 	kappa[13] 	1
scalar tiger_cost_network.node[14].core_layer 	interests[14] 	0
scalar tiger_cost_network.node[14].core_layer 	data[14] 	0
scalar tiger_cost_network.node[14].content_store 	p_hit[14] 	-nan
scalar tiger_cost_network.node[14].content_store 	hits[14] 	0
scalar tiger_cost_network.node[14].content_store 	misses[14] 	0
scalar tiger_cost_network.node[14].content_store 	decision_yes[14] 	0
scalar tiger_cost_network.node[14].content_store 	decision_no[14] 	0
scalar tiger_cost_network.node[14].content_store 	decision_ratio[14] 	0
scalar tiger_cost_network.node[14].content_store 	correction_factor[14] 	0.0027225701061802
scalar tiger_cost_network.node[14].content_store 	kappa[14] 	1
scalar tiger_cost_network.node[15].core_layer 	interests[15] 	0
scalar tiger_cost_network.node[15].core_layer 	data[15] 	0
scalar tiger_cost_network.node[15].content_store 	p_hit[15] 	-nan
scalar tiger_cost_network.node[15].content_store 	hits[15] 	0
scalar tiger_cost_network.node[15].content_store 	misses[15] 	0
scalar tiger_cost_network.node[15].content_store 	decision_yes[15] 	0
scalar tiger_cost_network.node[15].content_store 	decision_no[15] 	0
scalar tiger_cost_network.node[15].content_store 	decision_ratio[15] 	0
scalar tiger_cost_network.node[15].content_store 	correction_factor[15] 	0.0027225701061802
scalar tiger_cost_network.node[15].content_store 	kappa[15] 	1
scalar tiger_cost_network.node[16].core_layer 	interests[16] 	179828
scalar tiger_cost_network.node[16].core_layer 	data[16] 	169273
scalar tiger_cost_network.node[16].content_store 	p_hit[16] 	0.058594879551571
scalar tiger_cost_network.node[16].content_store 	hits[16] 	10537
scalar tiger_cost_network.node[16].content_store 	misses[16] 	169291
scalar tiger_cost_network.node[16].content_store 	decision_yes[16] 	951
scalar tiger_cost_network.node[16].content_store 	decision_no[16] 	168322
scalar tiger_cost_network.node[16].content_store 	decision_ratio[16] 	0.0056181434723789
scalar tiger_cost_network.node[16].content_store 	correction_factor[16] 	0.0027225701061802
scalar tiger_cost_network.node[16].content_store 	kappa[16] 	1
scalar tiger_cost_network.node[17].core_layer 	interests[17] 	429436
scalar tiger_cost_network.node[17].core_layer 	repo_load[17] 	219817
scalar tiger_cost_network.node[17].core_layer 	data[17] 	179506
scalar tiger_cost_network.node[17].content_store 	p_hit[17] 	0.070052347730512
scalar tiger_cost_network.node[17].content_store 	hits[17] 	30083
scalar tiger_cost_network.node[17].content_store 	misses[17] 	399353
scalar tiger_cost_network.node[17].content_store 	decision_yes[17] 	1844
scalar tiger_cost_network.node[17].content_store 	decision_no[17] 	397479
scalar tiger_cost_network.node[17].content_store 	decision_ratio[17] 	0.0046178156529927
scalar tiger_cost_network.node[17].content_store 	correction_factor[17] 	0.0027225701061802
scalar tiger_cost_network.node[17].content_store 	kappa[17] 	1
scalar tiger_cost_network.node[18].core_layer 	interests[18] 	220621
scalar tiger_cost_network.node[18].core_layer 	data[18] 	201574
scalar tiger_cost_network.node[18].content_store 	p_hit[18] 	0.086333576586091
scalar tiger_cost_network.node[18].content_store 	hits[18] 	19047
scalar tiger_cost_network.node[18].content_store 	misses[18] 	201574
scalar tiger_cost_network.node[18].content_store 	decision_yes[18] 	1051
scalar tiger_cost_network.node[18].content_store 	decision_no[18] 	200523
scalar tiger_cost_network.node[18].content_store 	decision_ratio[18] 	0.0052139660868961
scalar tiger_cost_network.node[18].content_store 	correction_factor[18] 	0.0027225701061802
scalar tiger_cost_network.node[18].content_store 	kappa[18] 	1
scalar tiger_cost_network.node[19].core_layer 	interests[19] 	180510
scalar tiger_cost_network.node[19].core_layer 	data[19] 	168476
scalar tiger_cost_network.node[19].content_store 	p_hit[19] 	0.066483851310177
scalar tiger_cost_network.node[19].content_store 	hits[19] 	12001
scalar tiger_cost_network.node[19].content_store 	misses[19] 	168509
scalar tiger_cost_network.node[19].content_store 	decision_yes[19] 	930
scalar tiger_cost_network.node[19].content_store 	decision_no[19] 	167546
scalar tiger_cost_network.node[19].content_store 	decision_ratio[19] 	0.0055200740758328
scalar tiger_cost_network.node[19].content_store 	correction_factor[19] 	0.0027225701061802
scalar tiger_cost_network.node[19].content_store 	kappa[19] 	1
scalar tiger_cost_network.node[20].core_layer 	interests[20] 	0
scalar tiger_cost_network.node[20].core_layer 	data[20] 	0
scalar tiger_cost_network.node[20].content_store 	p_hit[20] 	-nan
scalar tiger_cost_network.node[20].content_store 	hits[20] 	0
scalar tiger_cost_network.node[20].content_store 	misses[20] 	0
scalar tiger_cost_network.node[20].content_store 	decision_yes[20] 	0
scalar tiger_cost_network.node[20].content_store 	decision_no[20] 	0
scalar tiger_cost_network.node[20].content_store 	decision_ratio[20] 	0
scalar tiger_cost_network.node[20].content_store 	correction_factor[20] 	0.0027225701061802
scalar tiger_cost_network.node[20].content_store 	kappa[20] 	1
scalar tiger_cost_network.node[21].core_layer 	interests[21] 	0
scalar tiger_cost_network.node[21].core_layer 	data[21] 	0
scalar tiger_cost_network.node[21].content_store 	p_hit[21] 	-nan
scalar tiger_cost_network.node[21].content_store 	hits[21] 	0
scalar tiger_cost_network.node[21].content_store 	misses[21] 	0
scalar tiger_cost_network.node[21].content_store 	decision_yes[21] 	0
scalar tiger_cost_network.node[21].content_store 	decision_no[21] 	0
scalar tiger_cost_network.node[21].content_store 	decision_ratio[21] 	0
scalar tiger_cost_network.node[21].content_store 	correction_factor[21] 	0.0027225701061802
scalar tiger_cost_network.node[21].content_store 	kappa[21] 	1
scalar tiger_cost_network.client[16] 	hdistance[16] 	2.1757744285635
scalar tiger_cost_network.client[16] 	downloads[16] 	179810
scalar tiger_cost_network.client[16] 	avg_time[16] 	0.000259890733
scalar tiger_cost_network.client[17] 	hdistance[17] 	1.4854231044488
scalar tiger_cost_network.client[17] 	downloads[17] 	180251
scalar tiger_cost_network.client[17] 	avg_time[17] 	0.000240722914
scalar tiger_cost_network.client[19] 	hdistance[19] 	2.6069305230029
scalar tiger_cost_network.client[19] 	downloads[19] 	180477
scalar tiger_cost_network.client[19] 	avg_time[19] 	0.00025837627
