version 2
run General-6-20140930-16:45:21-22098
attr D costaware0.01
attr F spr
attr R lru
attr a 1
attr configname General
attr csize 1e3
attr ctlg 1e5
attr datetime 20140930-16:45:21
attr experiment General
attr inifile omnetpp.ini
attr iterationvars "$net=tiger_cost, $rep=17, $priceratiovalue=10, $weights=0.333_0.333_0.334, $lambda=100, $a=1, $ctlg=1e5, $F=spr, $ttl=10, $D=costaware0.01, $xi=1, $R=lru, $csize=1e3, $pricebits=0, $window=60, $variance=0.05, $mytime=1800"
attr iterationvars2 "$net=tiger_cost, $rep=17, $priceratiovalue=10, $weights=0.333_0.333_0.334, $lambda=100, $a=1, $ctlg=1e5, $F=spr, $ttl=10, $D=costaware0.01, $xi=1, $R=lru, $csize=1e3, $pricebits=0, $window=60, $variance=0.05, $mytime=1800, $repetition=0"
attr lambda 100
attr measurement "$net=tiger_cost, $rep=17, $priceratiovalue=10, $weights=0.333_0.333_0.334, $lambda=100, $a=1, $ctlg=1e5, $F=spr, $ttl=10, $D=costaware0.01, $xi=1, $R=lru, $csize=1e3, $pricebits=0, $window=60, $variance=0.05, $mytime=1800"
attr mytime 1800
attr net tiger_cost
attr network networks.${net=level3_cost,tiger_cost,dtelecom_cost}_network
attr pricebits 0
attr priceratiovalue 10
attr processid 22098
attr rep 17
attr repetition 0
attr replication #0
attr resultdir results
attr runnumber 6
attr seedset 17
attr ttl 10
attr variance 0.05
attr weights 0.333_0.333_0.334
attr window 60
attr xi 1

scalar . 	a 	1
scalar . 	csize 	1e3
scalar . 	ctlg 	1e5
scalar . 	lambda 	100
scalar . 	mytime 	1800
scalar . 	pricebits 	0
scalar . 	priceratiovalue 	10
scalar . 	rep 	17
scalar . 	ttl 	10
scalar . 	variance 	0.05
scalar . 	window 	60
scalar . 	xi 	1
scalar tiger_cost_network.content_distribution 	repo-0 	21
scalar tiger_cost_network.content_distribution 	repo-1 	11
scalar tiger_cost_network.content_distribution 	repo-2 	13
scalar tiger_cost_network.content_distribution 	client-0 	0
scalar tiger_cost_network.content_distribution 	client-1 	5
scalar tiger_cost_network.content_distribution 	client-2 	10
scalar tiger_cost_network.content_distribution 	repo-0_card 	33434
scalar tiger_cost_network.content_distribution 	repo-0_price 	10
scalar tiger_cost_network.content_distribution 	repo-1_card 	33236
scalar tiger_cost_network.content_distribution 	repo-1_price 	0
scalar tiger_cost_network.content_distribution 	repo-2_card 	33330
scalar tiger_cost_network.content_distribution 	repo-2_price 	1
scalar tiger_cost_network.statistics 	repo_popularity[0] 	0.28775972584778
scalar tiger_cost_network.statistics 	repo_popularity[1] 	0.38489717054386
scalar tiger_cost_network.statistics 	repo_popularity[2] 	0.32734310360837
scalar tiger_cost_network.statistics 	stabilization_time 	36060
scalar tiger_cost_network.statistics 	p_hit 	0.091553718295714
scalar tiger_cost_network.statistics 	interests 	78025.727272727
scalar tiger_cost_network.statistics 	data 	53489.045454545
scalar tiger_cost_network.statistics 	hdistance 	2.8889111263626
scalar tiger_cost_network.statistics 	avg_time 	0.000831687109
scalar tiger_cost_network.statistics 	downloads 	539482
scalar tiger_cost_network.statistics 	total_cost 	960545
scalar tiger_cost_network.statistics 	total_replicas 	100000
scalar tiger_cost_network.statistics 	inner_hit 	0.29147960450951
scalar tiger_cost_network.node[0].core_layer 	interests[0] 	249102
scalar tiger_cost_network.node[0].core_layer 	data[0] 	242544
scalar tiger_cost_network.node[0].core_layer 	repo_int[0] 	382234
scalar tiger_cost_network.node[0].content_store 	p_hit[0] 	0.025792647188702
scalar tiger_cost_network.node[0].content_store 	hits[0] 	6425
scalar tiger_cost_network.node[0].content_store 	misses[0] 	242677
scalar tiger_cost_network.node[0].content_store 	decision_yes[0] 	860
scalar tiger_cost_network.node[0].content_store 	decision_no[0] 	241684
scalar tiger_cost_network.node[0].content_store 	decision_ratio[0] 	0.0035457484002903
scalar tiger_cost_network.node[0].content_store 	correction_factor[0] 	0.0027225701061802
scalar tiger_cost_network.node[0].content_store 	kappa[0] 	1
scalar tiger_cost_network.node[1].core_layer 	interests[1] 	49991
scalar tiger_cost_network.node[1].core_layer 	data[1] 	46164
scalar tiger_cost_network.node[1].content_store 	p_hit[1] 	0.076533776079694
scalar tiger_cost_network.node[1].content_store 	hits[1] 	3826
scalar tiger_cost_network.node[1].content_store 	misses[1] 	46165
scalar tiger_cost_network.node[1].content_store 	decision_yes[1] 	84
scalar tiger_cost_network.node[1].content_store 	decision_no[1] 	46080
scalar tiger_cost_network.node[1].content_store 	decision_ratio[1] 	0.0018195996880686
scalar tiger_cost_network.node[1].content_store 	correction_factor[1] 	0.0027225701061802
scalar tiger_cost_network.node[1].content_store 	kappa[1] 	1
scalar tiger_cost_network.node[2].core_layer 	interests[2] 	94017
scalar tiger_cost_network.node[2].core_layer 	data[2] 	71077
scalar tiger_cost_network.node[2].content_store 	p_hit[2] 	0.24396651669379
scalar tiger_cost_network.node[2].content_store 	hits[2] 	22937
scalar tiger_cost_network.node[2].content_store 	misses[2] 	71080
scalar tiger_cost_network.node[2].content_store 	decision_yes[2] 	144
scalar tiger_cost_network.node[2].content_store 	decision_no[2] 	70933
scalar tiger_cost_network.node[2].content_store 	decision_ratio[2] 	0.0020259718333638
scalar tiger_cost_network.node[2].content_store 	correction_factor[2] 	0.0027225701061802
scalar tiger_cost_network.node[2].content_store 	kappa[2] 	1
scalar tiger_cost_network.node[3].core_layer 	interests[3] 	51215
scalar tiger_cost_network.node[3].core_layer 	data[3] 	47853
scalar tiger_cost_network.node[3].content_store 	p_hit[3] 	0.06564483061603
scalar tiger_cost_network.node[3].content_store 	hits[3] 	3362
scalar tiger_cost_network.node[3].content_store 	misses[3] 	47853
scalar tiger_cost_network.node[3].content_store 	decision_yes[3] 	87
scalar tiger_cost_network.node[3].content_store 	decision_no[3] 	47766
scalar tiger_cost_network.node[3].content_store 	decision_ratio[3] 	0.0018180678327378
scalar tiger_cost_network.node[3].content_store 	correction_factor[3] 	0.0027225701061802
scalar tiger_cost_network.node[3].content_store 	kappa[3] 	1
scalar tiger_cost_network.node[4].core_layer 	interests[4] 	57913
scalar tiger_cost_network.node[4].core_layer 	data[4] 	51215
scalar tiger_cost_network.node[4].content_store 	p_hit[4] 	0.11563897570494
scalar tiger_cost_network.node[4].content_store 	hits[4] 	6697
scalar tiger_cost_network.node[4].content_store 	misses[4] 	51216
scalar tiger_cost_network.node[4].content_store 	decision_yes[4] 	99
scalar tiger_cost_network.node[4].content_store 	decision_no[4] 	51116
scalar tiger_cost_network.node[4].content_store 	decision_ratio[4] 	0.0019330274333691
scalar tiger_cost_network.node[4].content_store 	correction_factor[4] 	0.0027225701061802
scalar tiger_cost_network.node[4].content_store 	kappa[4] 	1
scalar tiger_cost_network.node[5].core_layer 	interests[5] 	180410
scalar tiger_cost_network.node[5].core_layer 	data[5] 	177589
scalar tiger_cost_network.node[5].content_store 	p_hit[5] 	0.014256415941467
scalar tiger_cost_network.node[5].content_store 	hits[5] 	2572
scalar tiger_cost_network.node[5].content_store 	misses[5] 	177838
scalar tiger_cost_network.node[5].content_store 	decision_yes[5] 	846
scalar tiger_cost_network.node[5].content_store 	decision_no[5] 	176743
scalar tiger_cost_network.node[5].content_store 	decision_ratio[5] 	0.0047638085692244
scalar tiger_cost_network.node[5].content_store 	correction_factor[5] 	0.0027225701061802
scalar tiger_cost_network.node[5].content_store 	kappa[5] 	1
scalar tiger_cost_network.node[6].core_layer 	interests[6] 	50487
scalar tiger_cost_network.node[6].core_layer 	data[6] 	47243
scalar tiger_cost_network.node[6].content_store 	p_hit[6] 	0.06425416443837
scalar tiger_cost_network.node[6].content_store 	hits[6] 	3244
scalar tiger_cost_network.node[6].content_store 	misses[6] 	47243
scalar tiger_cost_network.node[6].content_store 	decision_yes[6] 	773
scalar tiger_cost_network.node[6].content_store 	decision_no[6] 	46470
scalar tiger_cost_network.node[6].content_store 	decision_ratio[6] 	0.016362212391254
scalar tiger_cost_network.node[6].content_store 	correction_factor[6] 	0.0027225701061802
scalar tiger_cost_network.node[6].content_store 	kappa[6] 	1
scalar tiger_cost_network.node[7].core_layer 	interests[7] 	47243
scalar tiger_cost_network.node[7].core_layer 	data[7] 	37490
scalar tiger_cost_network.node[7].content_store 	p_hit[7] 	0.20644328260271
scalar tiger_cost_network.node[7].content_store 	hits[7] 	9753
scalar tiger_cost_network.node[7].content_store 	misses[7] 	37490
scalar tiger_cost_network.node[7].content_store 	decision_yes[7] 	778
scalar tiger_cost_network.node[7].content_store 	decision_no[7] 	36712
scalar tiger_cost_network.node[7].content_store 	decision_ratio[7] 	0.020752200586823
scalar tiger_cost_network.node[7].content_store 	correction_factor[7] 	0.0027225701061802
scalar tiger_cost_network.node[7].content_store 	kappa[7] 	1
scalar tiger_cost_network.node[8].core_layer 	interests[8] 	37490
scalar tiger_cost_network.node[8].core_layer 	data[8] 	36044
scalar tiger_cost_network.node[8].content_store 	p_hit[8] 	0.038570285409443
scalar tiger_cost_network.node[8].content_store 	hits[8] 	1446
scalar tiger_cost_network.node[8].content_store 	misses[8] 	36044
scalar tiger_cost_network.node[8].content_store 	decision_yes[8] 	792
scalar tiger_cost_network.node[8].content_store 	decision_no[8] 	35252
scalar tiger_cost_network.node[8].content_store 	decision_ratio[8] 	0.02197314393519
scalar tiger_cost_network.node[8].content_store 	correction_factor[8] 	0.0027225701061802
scalar tiger_cost_network.node[8].content_store 	kappa[8] 	1
scalar tiger_cost_network.node[9].core_layer 	interests[9] 	45825
scalar tiger_cost_network.node[9].core_layer 	data[9] 	35669
scalar tiger_cost_network.node[9].content_store 	p_hit[9] 	0.22162575013639
scalar tiger_cost_network.node[9].content_store 	hits[9] 	10156
scalar tiger_cost_network.node[9].content_store 	misses[9] 	35669
scalar tiger_cost_network.node[9].content_store 	decision_yes[9] 	811
scalar tiger_cost_network.node[9].content_store 	decision_no[9] 	34858
scalar tiger_cost_network.node[9].content_store 	decision_ratio[9] 	0.022736830300821
scalar tiger_cost_network.node[9].content_store 	correction_factor[9] 	0.0027225701061802
scalar tiger_cost_network.node[9].content_store 	kappa[9] 	1
scalar tiger_cost_network.node[10].core_layer 	interests[10] 	179483
scalar tiger_cost_network.node[10].core_layer 	data[10] 	164739
scalar tiger_cost_network.node[10].content_store 	p_hit[10] 	0.081991052077356
scalar tiger_cost_network.node[10].content_store 	hits[10] 	14716
scalar tiger_cost_network.node[10].content_store 	misses[10] 	164767
scalar tiger_cost_network.node[10].content_store 	decision_yes[10] 	823
scalar tiger_cost_network.node[10].content_store 	decision_no[10] 	163916
scalar tiger_cost_network.node[10].content_store 	decision_ratio[10] 	0.0049957812054219
scalar tiger_cost_network.node[10].content_store 	correction_factor[10] 	0.0027225701061802
scalar tiger_cost_network.node[10].content_store 	kappa[10] 	1
scalar tiger_cost_network.node[11].core_layer 	interests[11] 	207434
scalar tiger_cost_network.node[11].core_layer 	repo_load[11] 	207434
scalar tiger_cost_network.node[11].core_layer 	data[11] 	0
scalar tiger_cost_network.node[11].content_store 	p_hit[11] 	0
scalar tiger_cost_network.node[11].content_store 	hits[11] 	0
scalar tiger_cost_network.node[11].content_store 	misses[11] 	207434
scalar tiger_cost_network.node[11].content_store 	decision_yes[11] 	0
scalar tiger_cost_network.node[11].content_store 	decision_no[11] 	207434
scalar tiger_cost_network.node[11].content_store 	decision_ratio[11] 	0
scalar tiger_cost_network.node[11].content_store 	correction_factor[11] 	0.0027225701061802
scalar tiger_cost_network.node[11].content_store 	kappa[11] 	1
scalar tiger_cost_network.node[12].core_layer 	interests[12] 	56167
scalar tiger_cost_network.node[12].core_layer 	data[12] 	42858
scalar tiger_cost_network.node[12].content_store 	p_hit[12] 	0.23695408335856
scalar tiger_cost_network.node[12].content_store 	hits[12] 	13309
scalar tiger_cost_network.node[12].content_store 	misses[12] 	42858
scalar tiger_cost_network.node[12].content_store 	decision_yes[12] 	88
scalar tiger_cost_network.node[12].content_store 	decision_no[12] 	42770
scalar tiger_cost_network.node[12].content_store 	decision_ratio[12] 	0.002053292267488
scalar tiger_cost_network.node[12].content_store 	correction_factor[12] 	0.0027225701061802
scalar tiger_cost_network.node[12].content_store 	kappa[12] 	1
scalar tiger_cost_network.node[13].core_layer 	interests[13] 	113935
scalar tiger_cost_network.node[13].core_layer 	repo_load[13] 	87495
scalar tiger_cost_network.node[13].core_layer 	data[13] 	0
scalar tiger_cost_network.node[13].content_store 	p_hit[13] 	0.23206214069426
scalar tiger_cost_network.node[13].content_store 	hits[13] 	26440
scalar tiger_cost_network.node[13].content_store 	misses[13] 	87495
scalar tiger_cost_network.node[13].content_store 	decision_yes[13] 	232
scalar tiger_cost_network.node[13].content_store 	decision_no[13] 	87263
scalar tiger_cost_network.node[13].content_store 	decision_ratio[13] 	0.0026515800902909
scalar tiger_cost_network.node[13].content_store 	correction_factor[13] 	0.0027225701061802
scalar tiger_cost_network.node[13].content_store 	kappa[13] 	1
scalar tiger_cost_network.node[14].core_layer 	interests[14] 	0
scalar tiger_cost_network.node[14].core_layer 	data[14] 	0
scalar tiger_cost_network.node[14].content_store 	p_hit[14] 	-nan
scalar tiger_cost_network.node[14].content_store 	hits[14] 	0
scalar tiger_cost_network.node[14].content_store 	misses[14] 	0
scalar tiger_cost_network.node[14].content_store 	decision_yes[14] 	0
scalar tiger_cost_network.node[14].content_store 	decision_no[14] 	0
scalar tiger_cost_network.node[14].content_store 	decision_ratio[14] 	0
scalar tiger_cost_network.node[14].content_store 	correction_factor[14] 	0.0027225701061802
scalar tiger_cost_network.node[14].content_store 	kappa[14] 	1
scalar tiger_cost_network.node[15].core_layer 	interests[15] 	0
scalar tiger_cost_network.node[15].core_layer 	data[15] 	0
scalar tiger_cost_network.node[15].content_store 	p_hit[15] 	-nan
scalar tiger_cost_network.node[15].content_store 	hits[15] 	0
scalar tiger_cost_network.node[15].content_store 	misses[15] 	0
scalar tiger_cost_network.node[15].content_store 	decision_yes[15] 	0
scalar tiger_cost_network.node[15].content_store 	decision_no[15] 	0
scalar tiger_cost_network.node[15].content_store 	decision_ratio[15] 	0
scalar tiger_cost_network.node[15].content_store 	correction_factor[15] 	0.0027225701061802
scalar tiger_cost_network.node[15].content_store 	kappa[15] 	1
scalar tiger_cost_network.node[16].core_layer 	interests[16] 	0
scalar tiger_cost_network.node[16].core_layer 	data[16] 	0
scalar tiger_cost_network.node[16].content_store 	p_hit[16] 	-nan
scalar tiger_cost_network.node[16].content_store 	hits[16] 	0
scalar tiger_cost_network.node[16].content_store 	misses[16] 	0
scalar tiger_cost_network.node[16].content_store 	decision_yes[16] 	0
scalar tiger_cost_network.node[16].content_store 	decision_no[16] 	0
scalar tiger_cost_network.node[16].content_store 	decision_ratio[16] 	0
scalar tiger_cost_network.node[16].content_store 	correction_factor[16] 	0.0027225701061802
scalar tiger_cost_network.node[16].content_store 	kappa[16] 	1
scalar tiger_cost_network.node[17].core_layer 	interests[17] 	69190
scalar tiger_cost_network.node[17].core_layer 	data[17] 	69190
scalar tiger_cost_network.node[17].content_store 	p_hit[17] 	0
scalar tiger_cost_network.node[17].content_store 	hits[17] 	0
scalar tiger_cost_network.node[17].content_store 	misses[17] 	69190
scalar tiger_cost_network.node[17].content_store 	decision_yes[17] 	0
scalar tiger_cost_network.node[17].content_store 	decision_no[17] 	69190
scalar tiger_cost_network.node[17].content_store 	decision_ratio[17] 	0
scalar tiger_cost_network.node[17].content_store 	correction_factor[17] 	0.0027225701061802
scalar tiger_cost_network.node[17].content_store 	kappa[17] 	1
scalar tiger_cost_network.node[18].core_layer 	interests[18] 	69190
scalar tiger_cost_network.node[18].core_layer 	data[18] 	69190
scalar tiger_cost_network.node[18].content_store 	p_hit[18] 	0
scalar tiger_cost_network.node[18].content_store 	hits[18] 	0
scalar tiger_cost_network.node[18].content_store 	misses[18] 	69190
scalar tiger_cost_network.node[18].content_store 	decision_yes[18] 	0
scalar tiger_cost_network.node[18].content_store 	decision_no[18] 	69190
scalar tiger_cost_network.node[18].content_store 	decision_ratio[18] 	0
scalar tiger_cost_network.node[18].content_store 	correction_factor[18] 	0.0027225701061802
scalar tiger_cost_network.node[18].content_store 	kappa[18] 	1
scalar tiger_cost_network.node[19].core_layer 	interests[19] 	47867
scalar tiger_cost_network.node[19].core_layer 	data[19] 	37894
scalar tiger_cost_network.node[19].content_store 	p_hit[19] 	0.20834813128042
scalar tiger_cost_network.node[19].content_store 	hits[19] 	9973
scalar tiger_cost_network.node[19].content_store 	misses[19] 	37894
scalar tiger_cost_network.node[19].content_store 	decision_yes[19] 	761
scalar tiger_cost_network.node[19].content_store 	decision_no[19] 	37133
scalar tiger_cost_network.node[19].content_store 	decision_ratio[19] 	0.02008233493429
scalar tiger_cost_network.node[19].content_store 	correction_factor[19] 	0.0027225701061802
scalar tiger_cost_network.node[19].content_store 	kappa[19] 	1
scalar tiger_cost_network.node[20].core_layer 	interests[20] 	0
scalar tiger_cost_network.node[20].core_layer 	data[20] 	0
scalar tiger_cost_network.node[20].content_store 	p_hit[20] 	-nan
scalar tiger_cost_network.node[20].content_store 	hits[20] 	0
scalar tiger_cost_network.node[20].content_store 	misses[20] 	0
scalar tiger_cost_network.node[20].content_store 	decision_yes[20] 	0
scalar tiger_cost_network.node[20].content_store 	decision_no[20] 	0
scalar tiger_cost_network.node[20].content_store 	decision_ratio[20] 	0
scalar tiger_cost_network.node[20].content_store 	correction_factor[20] 	0.0027225701061802
scalar tiger_cost_network.node[20].content_store 	kappa[20] 	1
scalar tiger_cost_network.node[21].core_layer 	interests[21] 	109607
scalar tiger_cost_network.node[21].core_layer 	repo_load[21] 	87305
scalar tiger_cost_network.node[21].core_layer 	data[21] 	0
scalar tiger_cost_network.node[21].content_store 	p_hit[21] 	0.20347240595947
scalar tiger_cost_network.node[21].content_store 	hits[21] 	22302
scalar tiger_cost_network.node[21].content_store 	misses[21] 	87305
scalar tiger_cost_network.node[21].content_store 	decision_yes[21] 	2319
scalar tiger_cost_network.node[21].content_store 	decision_no[21] 	84986
scalar tiger_cost_network.node[21].content_store 	decision_ratio[21] 	0.026562052574308
scalar tiger_cost_network.node[21].content_store 	correction_factor[21] 	0.0027225701061802
scalar tiger_cost_network.node[21].content_store 	kappa[21] 	1
scalar tiger_cost_network.client[0] 	hdistance[0] 	2.13532296265
scalar tiger_cost_network.client[0] 	downloads[0] 	179866
scalar tiger_cost_network.client[0] 	avg_time[0] 	0.000388210775
scalar tiger_cost_network.client[5] 	hdistance[5] 	4.2545945015846
scalar tiger_cost_network.client[5] 	downloads[5] 	180161
scalar tiger_cost_network.client[5] 	avg_time[5] 	0.001721930187
scalar tiger_cost_network.client[10] 	hdistance[10] 	2.2768159148533
scalar tiger_cost_network.client[10] 	downloads[10] 	179455
scalar tiger_cost_network.client[10] 	avg_time[10] 	0.000384920365
