version 2
run General-6-20140930-16:26:04-19748
attr D costaware0.01
attr F spr
attr R lru
attr a 1
attr configname General
attr csize 1e3
attr ctlg 1e5
attr datetime 20140930-16:26:04
attr experiment General
attr inifile omnetpp.ini
attr iterationvars "$net=tiger_cost, $rep=8, $priceratiovalue=10, $weights=0.333_0.333_0.334, $lambda=100, $a=1, $ctlg=1e5, $F=spr, $ttl=10, $D=costaware0.01, $xi=1, $R=lru, $csize=1e3, $pricebits=0, $window=60, $variance=0.05, $mytime=1800"
attr iterationvars2 "$net=tiger_cost, $rep=8, $priceratiovalue=10, $weights=0.333_0.333_0.334, $lambda=100, $a=1, $ctlg=1e5, $F=spr, $ttl=10, $D=costaware0.01, $xi=1, $R=lru, $csize=1e3, $pricebits=0, $window=60, $variance=0.05, $mytime=1800, $repetition=0"
attr lambda 100
attr measurement "$net=tiger_cost, $rep=8, $priceratiovalue=10, $weights=0.333_0.333_0.334, $lambda=100, $a=1, $ctlg=1e5, $F=spr, $ttl=10, $D=costaware0.01, $xi=1, $R=lru, $csize=1e3, $pricebits=0, $window=60, $variance=0.05, $mytime=1800"
attr mytime 1800
attr net tiger_cost
attr network networks.${net=level3_cost,tiger_cost,dtelecom_cost}_network
attr pricebits 0
attr priceratiovalue 10
attr processid 19748
attr rep 8
attr repetition 0
attr replication #0
attr resultdir results
attr runnumber 6
attr seedset 8
attr ttl 10
attr variance 0.05
attr weights 0.333_0.333_0.334
attr window 60
attr xi 1

scalar . 	a 	1
scalar . 	csize 	1e3
scalar . 	ctlg 	1e5
scalar . 	lambda 	100
scalar . 	mytime 	1800
scalar . 	pricebits 	0
scalar . 	priceratiovalue 	10
scalar . 	rep 	8
scalar . 	ttl 	10
scalar . 	variance 	0.05
scalar . 	window 	60
scalar . 	xi 	1
scalar tiger_cost_network.content_distribution 	repo-0 	4
scalar tiger_cost_network.content_distribution 	repo-1 	15
scalar tiger_cost_network.content_distribution 	repo-2 	12
scalar tiger_cost_network.content_distribution 	client-0 	8
scalar tiger_cost_network.content_distribution 	client-1 	4
scalar tiger_cost_network.content_distribution 	client-2 	20
scalar tiger_cost_network.content_distribution 	repo-0_card 	33476
scalar tiger_cost_network.content_distribution 	repo-0_price 	1
scalar tiger_cost_network.content_distribution 	repo-1_card 	33258
scalar tiger_cost_network.content_distribution 	repo-1_price 	0
scalar tiger_cost_network.content_distribution 	repo-2_card 	33266
scalar tiger_cost_network.content_distribution 	repo-2_price 	10
scalar tiger_cost_network.statistics 	repo_popularity[0] 	0.27308552772926
scalar tiger_cost_network.statistics 	repo_popularity[1] 	0.42673410384757
scalar tiger_cost_network.statistics 	repo_popularity[2] 	0.30018036842319
scalar tiger_cost_network.statistics 	stabilization_time 	36060
scalar tiger_cost_network.statistics 	p_hit 	0.057850759582595
scalar tiger_cost_network.statistics 	interests 	92332.409090909
scalar tiger_cost_network.statistics 	data 	67846.909090909
scalar tiger_cost_network.statistics 	hdistance 	3.5591539614601
scalar tiger_cost_network.statistics 	avg_time 	0.00125553868
scalar tiger_cost_network.statistics 	downloads 	537818
scalar tiger_cost_network.statistics 	total_cost 	1008546
scalar tiger_cost_network.statistics 	total_replicas 	100000
scalar tiger_cost_network.statistics 	inner_hit 	0.2188119400987
scalar tiger_cost_network.node[0].core_layer 	interests[0] 	47314
scalar tiger_cost_network.node[0].core_layer 	data[0] 	43154
scalar tiger_cost_network.node[0].core_layer 	repo_int[0] 	420137
scalar tiger_cost_network.node[0].content_store 	p_hit[0] 	0.087923236251427
scalar tiger_cost_network.node[0].content_store 	hits[0] 	4160
scalar tiger_cost_network.node[0].content_store 	misses[0] 	43154
scalar tiger_cost_network.node[0].content_store 	decision_yes[0] 	860
scalar tiger_cost_network.node[0].content_store 	decision_no[0] 	42294
scalar tiger_cost_network.node[0].content_store 	decision_ratio[0] 	0.019928627705427
scalar tiger_cost_network.node[0].content_store 	correction_factor[0] 	0.0027225701061802
scalar tiger_cost_network.node[0].content_store 	kappa[0] 	1
scalar tiger_cost_network.node[1].core_layer 	interests[1] 	173788
scalar tiger_cost_network.node[1].core_layer 	data[1] 	165932
scalar tiger_cost_network.node[1].content_store 	p_hit[1] 	0.045204502036965
scalar tiger_cost_network.node[1].content_store 	hits[1] 	7856
scalar tiger_cost_network.node[1].content_store 	misses[1] 	165932
scalar tiger_cost_network.node[1].content_store 	decision_yes[1] 	898
scalar tiger_cost_network.node[1].content_store 	decision_no[1] 	165034
scalar tiger_cost_network.node[1].content_store 	decision_ratio[1] 	0.0054118554588627
scalar tiger_cost_network.node[1].content_store 	correction_factor[1] 	0.0027225701061802
scalar tiger_cost_network.node[1].content_store 	kappa[1] 	1
scalar tiger_cost_network.node[2].core_layer 	interests[2] 	214192
scalar tiger_cost_network.node[2].core_layer 	data[2] 	206929
scalar tiger_cost_network.node[2].content_store 	p_hit[2] 	0.033764099499514
scalar tiger_cost_network.node[2].content_store 	hits[2] 	7232
scalar tiger_cost_network.node[2].content_store 	misses[2] 	206960
scalar tiger_cost_network.node[2].content_store 	decision_yes[2] 	1707
scalar tiger_cost_network.node[2].content_store 	decision_no[2] 	205222
scalar tiger_cost_network.node[2].content_store 	decision_ratio[2] 	0.0082492062494865
scalar tiger_cost_network.node[2].content_store 	correction_factor[2] 	0.0027225701061802
scalar tiger_cost_network.node[2].content_store 	kappa[2] 	1
scalar tiger_cost_network.node[3].core_layer 	interests[3] 	252328
scalar tiger_cost_network.node[3].core_layer 	data[3] 	245573
scalar tiger_cost_network.node[3].content_store 	p_hit[3] 	0.026227767033385
scalar tiger_cost_network.node[3].content_store 	hits[3] 	6618
scalar tiger_cost_network.node[3].content_store 	misses[3] 	245710
scalar tiger_cost_network.node[3].content_store 	decision_yes[3] 	912
scalar tiger_cost_network.node[3].content_store 	decision_no[3] 	244661
scalar tiger_cost_network.node[3].content_store 	decision_ratio[3] 	0.0037137633208863
scalar tiger_cost_network.node[3].content_store 	correction_factor[3] 	0.0027225701061802
scalar tiger_cost_network.node[3].content_store 	kappa[3] 	1
scalar tiger_cost_network.node[4].core_layer 	interests[4] 	259760
scalar tiger_cost_network.node[4].core_layer 	repo_load[4] 	100376
scalar tiger_cost_network.node[4].core_layer 	data[4] 	129663
scalar tiger_cost_network.node[4].content_store 	p_hit[4] 	0.11330843855867
scalar tiger_cost_network.node[4].content_store 	hits[4] 	29433
scalar tiger_cost_network.node[4].content_store 	misses[4] 	230327
scalar tiger_cost_network.node[4].content_store 	decision_yes[4] 	1100
scalar tiger_cost_network.node[4].content_store 	decision_no[4] 	228939
scalar tiger_cost_network.node[4].content_store 	decision_ratio[4] 	0.004781797869057
scalar tiger_cost_network.node[4].content_store 	correction_factor[4] 	0.0027225701061802
scalar tiger_cost_network.node[4].content_store 	kappa[4] 	1
scalar tiger_cost_network.node[5].core_layer 	interests[5] 	0
scalar tiger_cost_network.node[5].core_layer 	data[5] 	0
scalar tiger_cost_network.node[5].content_store 	p_hit[5] 	-nan
scalar tiger_cost_network.node[5].content_store 	hits[5] 	0
scalar tiger_cost_network.node[5].content_store 	misses[5] 	0
scalar tiger_cost_network.node[5].content_store 	decision_yes[5] 	0
scalar tiger_cost_network.node[5].content_store 	decision_no[5] 	0
scalar tiger_cost_network.node[5].content_store 	decision_ratio[5] 	0
scalar tiger_cost_network.node[5].content_store 	correction_factor[5] 	0.0027225701061802
scalar tiger_cost_network.node[5].content_store 	kappa[5] 	1
scalar tiger_cost_network.node[6].core_layer 	interests[6] 	76289
scalar tiger_cost_network.node[6].core_layer 	data[6] 	76289
scalar tiger_cost_network.node[6].content_store 	p_hit[6] 	0
scalar tiger_cost_network.node[6].content_store 	hits[6] 	0
scalar tiger_cost_network.node[6].content_store 	misses[6] 	76289
scalar tiger_cost_network.node[6].content_store 	decision_yes[6] 	0
scalar tiger_cost_network.node[6].content_store 	decision_no[6] 	76289
scalar tiger_cost_network.node[6].content_store 	decision_ratio[6] 	0
scalar tiger_cost_network.node[6].content_store 	correction_factor[6] 	0.0027225701061802
scalar tiger_cost_network.node[6].content_store 	kappa[6] 	1
scalar tiger_cost_network.node[7].core_layer 	interests[7] 	76289
scalar tiger_cost_network.node[7].core_layer 	data[7] 	76289
scalar tiger_cost_network.node[7].content_store 	p_hit[7] 	0
scalar tiger_cost_network.node[7].content_store 	hits[7] 	0
scalar tiger_cost_network.node[7].content_store 	misses[7] 	76289
scalar tiger_cost_network.node[7].content_store 	decision_yes[7] 	0
scalar tiger_cost_network.node[7].content_store 	decision_no[7] 	76289
scalar tiger_cost_network.node[7].content_store 	decision_ratio[7] 	0
scalar tiger_cost_network.node[7].content_store 	correction_factor[7] 	0.0027225701061802
scalar tiger_cost_network.node[7].content_store 	kappa[7] 	1
scalar tiger_cost_network.node[8].core_layer 	interests[8] 	179115
scalar tiger_cost_network.node[8].core_layer 	data[8] 	173788
scalar tiger_cost_network.node[8].content_store 	p_hit[8] 	0.027680540434916
scalar tiger_cost_network.node[8].content_store 	hits[8] 	4958
scalar tiger_cost_network.node[8].content_store 	misses[8] 	174157
scalar tiger_cost_network.node[8].content_store 	decision_yes[8] 	859
scalar tiger_cost_network.node[8].content_store 	decision_no[8] 	172929
scalar tiger_cost_network.node[8].content_store 	decision_ratio[8] 	0.0049428038759868
scalar tiger_cost_network.node[8].content_store 	correction_factor[8] 	0.0027225701061802
scalar tiger_cost_network.node[8].content_store 	kappa[8] 	1
scalar tiger_cost_network.node[9].core_layer 	interests[9] 	0
scalar tiger_cost_network.node[9].core_layer 	data[9] 	0
scalar tiger_cost_network.node[9].content_store 	p_hit[9] 	-nan
scalar tiger_cost_network.node[9].content_store 	hits[9] 	0
scalar tiger_cost_network.node[9].content_store 	misses[9] 	0
scalar tiger_cost_network.node[9].content_store 	decision_yes[9] 	0
scalar tiger_cost_network.node[9].content_store 	decision_no[9] 	0
scalar tiger_cost_network.node[9].content_store 	decision_ratio[9] 	0
scalar tiger_cost_network.node[9].content_store 	correction_factor[9] 	0.0027225701061802
scalar tiger_cost_network.node[9].content_store 	kappa[9] 	1
scalar tiger_cost_network.node[10].core_layer 	interests[10] 	0
scalar tiger_cost_network.node[10].core_layer 	data[10] 	0
scalar tiger_cost_network.node[10].content_store 	p_hit[10] 	-nan
scalar tiger_cost_network.node[10].content_store 	hits[10] 	0
scalar tiger_cost_network.node[10].content_store 	misses[10] 	0
scalar tiger_cost_network.node[10].content_store 	decision_yes[10] 	0
scalar tiger_cost_network.node[10].content_store 	decision_no[10] 	0
scalar tiger_cost_network.node[10].content_store 	decision_ratio[10] 	0
scalar tiger_cost_network.node[10].content_store 	correction_factor[10] 	0.0027225701061802
scalar tiger_cost_network.node[10].content_store 	kappa[10] 	1
scalar tiger_cost_network.node[11].core_layer 	interests[11] 	0
scalar tiger_cost_network.node[11].core_layer 	data[11] 	0
scalar tiger_cost_network.node[11].content_store 	p_hit[11] 	-nan
scalar tiger_cost_network.node[11].content_store 	hits[11] 	0
scalar tiger_cost_network.node[11].content_store 	misses[11] 	0
scalar tiger_cost_network.node[11].content_store 	decision_yes[11] 	0
scalar tiger_cost_network.node[11].content_store 	decision_no[11] 	0
scalar tiger_cost_network.node[11].content_store 	decision_ratio[11] 	0
scalar tiger_cost_network.node[11].content_store 	correction_factor[11] 	0.0027225701061802
scalar tiger_cost_network.node[11].content_store 	kappa[11] 	1
scalar tiger_cost_network.node[12].core_layer 	interests[12] 	127418
scalar tiger_cost_network.node[12].core_layer 	repo_load[12] 	90817
scalar tiger_cost_network.node[12].core_layer 	data[12] 	0
scalar tiger_cost_network.node[12].content_store 	p_hit[12] 	0.28725140874916
scalar tiger_cost_network.node[12].content_store 	hits[12] 	36601
scalar tiger_cost_network.node[12].content_store 	misses[12] 	90817
scalar tiger_cost_network.node[12].content_store 	decision_yes[12] 	2510
scalar tiger_cost_network.node[12].content_store 	decision_no[12] 	88307
scalar tiger_cost_network.node[12].content_store 	decision_ratio[12] 	0.027637997291256
scalar tiger_cost_network.node[12].content_store 	correction_factor[12] 	0.0027225701061802
scalar tiger_cost_network.node[12].content_store 	kappa[12] 	1
scalar tiger_cost_network.node[13].core_layer 	interests[13] 	0
scalar tiger_cost_network.node[13].core_layer 	data[13] 	0
scalar tiger_cost_network.node[13].content_store 	p_hit[13] 	-nan
scalar tiger_cost_network.node[13].content_store 	hits[13] 	0
scalar tiger_cost_network.node[13].content_store 	misses[13] 	0
scalar tiger_cost_network.node[13].content_store 	decision_yes[13] 	0
scalar tiger_cost_network.node[13].content_store 	decision_no[13] 	0
scalar tiger_cost_network.node[13].content_store 	decision_ratio[13] 	0
scalar tiger_cost_network.node[13].content_store 	correction_factor[13] 	0.0027225701061802
scalar tiger_cost_network.node[13].content_store 	kappa[13] 	1
scalar tiger_cost_network.node[14].core_layer 	interests[14] 	0
scalar tiger_cost_network.node[14].core_layer 	data[14] 	0
scalar tiger_cost_network.node[14].content_store 	p_hit[14] 	-nan
scalar tiger_cost_network.node[14].content_store 	hits[14] 	0
scalar tiger_cost_network.node[14].content_store 	misses[14] 	0
scalar tiger_cost_network.node[14].content_store 	decision_yes[14] 	0
scalar tiger_cost_network.node[14].content_store 	decision_no[14] 	0
scalar tiger_cost_network.node[14].content_store 	decision_ratio[14] 	0
scalar tiger_cost_network.node[14].content_store 	correction_factor[14] 	0.0027225701061802
scalar tiger_cost_network.node[14].content_store 	kappa[14] 	1
scalar tiger_cost_network.node[15].core_layer 	interests[15] 	228944
scalar tiger_cost_network.node[15].core_layer 	repo_load[15] 	228944
scalar tiger_cost_network.node[15].core_layer 	data[15] 	0
scalar tiger_cost_network.node[15].content_store 	p_hit[15] 	0
scalar tiger_cost_network.node[15].content_store 	hits[15] 	0
scalar tiger_cost_network.node[15].content_store 	misses[15] 	228944
scalar tiger_cost_network.node[15].content_store 	decision_yes[15] 	0
scalar tiger_cost_network.node[15].content_store 	decision_no[15] 	228944
scalar tiger_cost_network.node[15].content_store 	decision_ratio[15] 	0
scalar tiger_cost_network.node[15].content_store 	correction_factor[15] 	0.0027225701061802
scalar tiger_cost_network.node[15].content_store 	kappa[15] 	1
scalar tiger_cost_network.node[16].core_layer 	interests[16] 	76289
scalar tiger_cost_network.node[16].core_layer 	data[16] 	76289
scalar tiger_cost_network.node[16].content_store 	p_hit[16] 	0
scalar tiger_cost_network.node[16].content_store 	hits[16] 	0
scalar tiger_cost_network.node[16].content_store 	misses[16] 	76289
scalar tiger_cost_network.node[16].content_store 	decision_yes[16] 	0
scalar tiger_cost_network.node[16].content_store 	decision_no[16] 	76289
scalar tiger_cost_network.node[16].content_store 	decision_ratio[16] 	0
scalar tiger_cost_network.node[16].content_store 	correction_factor[16] 	0.0027225701061802
scalar tiger_cost_network.node[16].content_store 	kappa[16] 	1
scalar tiger_cost_network.node[17].core_layer 	interests[17] 	43852
scalar tiger_cost_network.node[17].core_layer 	data[17] 	34915
scalar tiger_cost_network.node[17].content_store 	p_hit[17] 	0.20379914257046
scalar tiger_cost_network.node[17].content_store 	hits[17] 	8937
scalar tiger_cost_network.node[17].content_store 	misses[17] 	34915
scalar tiger_cost_network.node[17].content_store 	decision_yes[17] 	97
scalar tiger_cost_network.node[17].content_store 	decision_no[17] 	34818
scalar tiger_cost_network.node[17].content_store 	decision_ratio[17] 	0.0027781755692396
scalar tiger_cost_network.node[17].content_store 	correction_factor[17] 	0.0027225701061802
scalar tiger_cost_network.node[17].content_store 	kappa[17] 	1
scalar tiger_cost_network.node[18].core_layer 	interests[18] 	96356
scalar tiger_cost_network.node[18].core_layer 	data[18] 	91166
scalar tiger_cost_network.node[18].content_store 	p_hit[18] 	0.053862758935614
scalar tiger_cost_network.node[18].content_store 	hits[18] 	5190
scalar tiger_cost_network.node[18].content_store 	misses[18] 	91166
scalar tiger_cost_network.node[18].content_store 	decision_yes[18] 	917
scalar tiger_cost_network.node[18].content_store 	decision_no[18] 	90249
scalar tiger_cost_network.node[18].content_store 	decision_ratio[18] 	0.010058574468552
scalar tiger_cost_network.node[18].content_store 	correction_factor[18] 	0.0027225701061802
scalar tiger_cost_network.node[18].content_store 	kappa[18] 	1
scalar tiger_cost_network.node[19].core_layer 	interests[19] 	0
scalar tiger_cost_network.node[19].core_layer 	data[19] 	0
scalar tiger_cost_network.node[19].content_store 	p_hit[19] 	-nan
scalar tiger_cost_network.node[19].content_store 	hits[19] 	0
scalar tiger_cost_network.node[19].content_store 	misses[19] 	0
scalar tiger_cost_network.node[19].content_store 	decision_yes[19] 	0
scalar tiger_cost_network.node[19].content_store 	decision_no[19] 	0
scalar tiger_cost_network.node[19].content_store 	decision_ratio[19] 	0
scalar tiger_cost_network.node[19].content_store 	correction_factor[19] 	0.0027225701061802
scalar tiger_cost_network.node[19].content_store 	kappa[19] 	1
scalar tiger_cost_network.node[20].core_layer 	interests[20] 	179379
scalar tiger_cost_network.node[20].core_layer 	data[20] 	172645
scalar tiger_cost_network.node[20].content_store 	p_hit[20] 	0.036392219825063
scalar tiger_cost_network.node[20].content_store 	hits[20] 	6528
scalar tiger_cost_network.node[20].content_store 	misses[20] 	172851
scalar tiger_cost_network.node[20].content_store 	decision_yes[20] 	890
scalar tiger_cost_network.node[20].content_store 	decision_no[20] 	171755
scalar tiger_cost_network.node[20].content_store 	decision_ratio[20] 	0.0051550870282951
scalar tiger_cost_network.node[20].content_store 	correction_factor[20] 	0.0027225701061802
scalar tiger_cost_network.node[20].content_store 	kappa[20] 	1
scalar tiger_cost_network.node[21].core_layer 	interests[21] 	0
scalar tiger_cost_network.node[21].core_layer 	data[21] 	0
scalar tiger_cost_network.node[21].content_store 	p_hit[21] 	-nan
scalar tiger_cost_network.node[21].content_store 	hits[21] 	0
scalar tiger_cost_network.node[21].content_store 	misses[21] 	0
scalar tiger_cost_network.node[21].content_store 	decision_yes[21] 	0
scalar tiger_cost_network.node[21].content_store 	decision_no[21] 	0
scalar tiger_cost_network.node[21].content_store 	decision_ratio[21] 	0
scalar tiger_cost_network.node[21].content_store 	correction_factor[21] 	0.0027225701061802
scalar tiger_cost_network.node[21].content_store 	kappa[21] 	1
scalar tiger_cost_network.client[4] 	hdistance[4] 	2.4566617935619
scalar tiger_cost_network.client[4] 	downloads[4] 	179899
scalar tiger_cost_network.client[4] 	avg_time[4] 	0.001128165404
scalar tiger_cost_network.client[8] 	hdistance[8] 	4.2679500520291
scalar tiger_cost_network.client[8] 	downloads[8] 	178746
scalar tiger_cost_network.client[8] 	avg_time[8] 	0.001744409085
scalar tiger_cost_network.client[20] 	hdistance[20] 	3.9528500387893
scalar tiger_cost_network.client[20] 	downloads[20] 	179173
scalar tiger_cost_network.client[20] 	avg_time[20] 	0.000894041552
