version 2
run General-40-20150216-11:50:00-9977
attr D fix0.01
attr F nrr
attr R lru
attr a 1
attr configname General
attr csize 1e3
attr ctlg 1e5
attr datetime 20150216-11:50:00
attr experiment General
attr inifile omnetpp.ini
attr iterationvars "$rep=14, $lambda=100, $a=1, $ctlg=1e5, $F=nrr, $ttl=10, $D=fix0.01, $R=lru, $csize=1e3, $window=60, $variance=0.05, $mytime=1800, $kappa=1, $priceratiovalue=10, $pricebits=0"
attr iterationvars2 "$rep=14, $lambda=100, $a=1, $ctlg=1e5, $F=nrr, $ttl=10, $D=fix0.01, $R=lru, $csize=1e3, $window=60, $variance=0.05, $mytime=1800, $kappa=1, $priceratiovalue=10, $pricebits=0, $repetition=0"
attr kappa 1
attr lambda 100
attr measurement "$rep=14, $lambda=100, $a=1, $ctlg=1e5, $F=nrr, $ttl=10, $D=fix0.01, $R=lru, $csize=1e3, $window=60, $variance=0.05, $mytime=1800, $kappa=1, $priceratiovalue=10, $pricebits=0"
attr mytime 1800
attr network networks.cost_scenario_network
attr pricebits 0
attr priceratiovalue 10
attr processid 9977
attr rep 14
attr repetition 0
attr replication #0
attr resultdir results
attr runnumber 40
attr seedset 14
attr ttl 10
attr variance 0.05
attr window 60

scalar . 	a 	1
scalar . 	csize 	1e3
scalar . 	ctlg 	1e5
scalar . 	kappa 	1
scalar . 	lambda 	100
scalar . 	mytime 	1800
scalar . 	pricebits 	0
scalar . 	priceratiovalue 	10
scalar . 	rep 	14
scalar . 	ttl 	10
scalar . 	variance 	0.05
scalar . 	window 	60
scalar cost_scenario_network.content_distribution 	repo-0 	1
scalar cost_scenario_network.content_distribution 	repo-1 	2
scalar cost_scenario_network.content_distribution 	repo-2 	3
scalar cost_scenario_network.content_distribution 	client-0 	0
scalar cost_scenario_network.content_distribution 	repo-0_card 	32965
scalar cost_scenario_network.content_distribution 	repo-0_price 	10
scalar cost_scenario_network.content_distribution 	repo-1_card 	33555
scalar cost_scenario_network.content_distribution 	repo-1_price 	0
scalar cost_scenario_network.content_distribution 	repo-2_card 	33480
scalar cost_scenario_network.content_distribution 	repo-2_price 	1
scalar cost_scenario_network.statistics 	repo_popularity[0] 	0.35423172232246
scalar cost_scenario_network.statistics 	repo_popularity[1] 	0.376095258271
scalar cost_scenario_network.statistics 	repo_popularity[2] 	0.26967301940656
scalar cost_scenario_network.statistics 	stabilization_time 	170.9
scalar cost_scenario_network.statistics 	p_hit 	0.24292686962277
scalar cost_scenario_network.statistics 	interests 	72528
scalar cost_scenario_network.statistics 	data 	27454.5
scalar cost_scenario_network.statistics 	hdistance 	1.2182102565809
scalar cost_scenario_network.statistics 	avg_time 	0
scalar cost_scenario_network.statistics 	downloads 	180294
scalar cost_scenario_network.statistics 	total_cost 	393305
scalar cost_scenario_network.statistics 	total_replicas 	100000
scalar cost_scenario_network.statistics 	inner_hit 	0.39089487170954
scalar cost_scenario_network.statistics 	interests_sent 	180294
scalar cost_scenario_network.node[0].core_layer 	interests[0] 	180294
scalar cost_scenario_network.node[0].core_layer 	data[0] 	109818
scalar cost_scenario_network.node[0].core_layer 	repo_int[0] 	109818
scalar cost_scenario_network.node[0].content_store 	p_hit[0] 	0.39089487170954
scalar cost_scenario_network.node[0].content_store 	hits[0] 	70476
scalar cost_scenario_network.node[0].content_store 	misses[0] 	109818
scalar cost_scenario_network.node[0].content_store 	decision_yes[0] 	1080
scalar cost_scenario_network.node[0].content_store 	decision_no[0] 	108738
scalar cost_scenario_network.node[0].content_store 	decision_ratio[0] 	0.0098344533683003
scalar cost_scenario_network.node[1].core_layer 	interests[1] 	35494
scalar cost_scenario_network.node[1].core_layer 	repo_load[1] 	35494
scalar cost_scenario_network.node[1].core_layer 	data[1] 	0
scalar cost_scenario_network.node[1].content_store 	p_hit[1] 	0
scalar cost_scenario_network.node[1].content_store 	hits[1] 	0
scalar cost_scenario_network.node[1].content_store 	misses[1] 	35494
scalar cost_scenario_network.node[1].content_store 	decision_yes[1] 	0
scalar cost_scenario_network.node[1].content_store 	decision_no[1] 	35494
scalar cost_scenario_network.node[1].content_store 	decision_ratio[1] 	0
scalar cost_scenario_network.node[2].core_layer 	interests[2] 	35959
scalar cost_scenario_network.node[2].core_layer 	repo_load[2] 	35959
scalar cost_scenario_network.node[2].core_layer 	data[2] 	0
scalar cost_scenario_network.node[2].content_store 	p_hit[2] 	0
scalar cost_scenario_network.node[2].content_store 	hits[2] 	0
scalar cost_scenario_network.node[2].content_store 	misses[2] 	35959
scalar cost_scenario_network.node[2].content_store 	decision_yes[2] 	0
scalar cost_scenario_network.node[2].content_store 	decision_no[2] 	35959
scalar cost_scenario_network.node[2].content_store 	decision_ratio[2] 	0
scalar cost_scenario_network.node[3].core_layer 	interests[3] 	38365
scalar cost_scenario_network.node[3].core_layer 	repo_load[3] 	38365
scalar cost_scenario_network.node[3].core_layer 	data[3] 	0
scalar cost_scenario_network.node[3].content_store 	p_hit[3] 	0
scalar cost_scenario_network.node[3].content_store 	hits[3] 	0
scalar cost_scenario_network.node[3].content_store 	misses[3] 	38365
scalar cost_scenario_network.node[3].content_store 	decision_yes[3] 	0
scalar cost_scenario_network.node[3].content_store 	decision_no[3] 	38365
scalar cost_scenario_network.node[3].content_store 	decision_ratio[3] 	0
scalar cost_scenario_network.client[0] 	hdistance[0] 	1.2182102565809
scalar cost_scenario_network.client[0] 	downloads[0] 	180294
scalar cost_scenario_network.client[0] 	avg_time[0] 	0
scalar cost_scenario_network.client[0] 	interests_sent[0] 	180294
