version 2
run General-19-20150216-11:49:36-9954
attr D fix0.01
attr F nrr
attr R lru
attr a 1
attr configname General
attr csize 1e3
attr ctlg 1e5
attr datetime 20150216-11:49:36
attr experiment General
attr inifile omnetpp.ini
attr iterationvars "$rep=7, $lambda=100, $a=1, $ctlg=1e5, $F=nrr, $ttl=10, $D=fix0.01, $R=lru, $csize=1e3, $window=60, $variance=0.05, $mytime=1800, $kappa=1, $priceratiovalue=10, $pricebits=0"
attr iterationvars2 "$rep=7, $lambda=100, $a=1, $ctlg=1e5, $F=nrr, $ttl=10, $D=fix0.01, $R=lru, $csize=1e3, $window=60, $variance=0.05, $mytime=1800, $kappa=1, $priceratiovalue=10, $pricebits=0, $repetition=0"
attr kappa 1
attr lambda 100
attr measurement "$rep=7, $lambda=100, $a=1, $ctlg=1e5, $F=nrr, $ttl=10, $D=fix0.01, $R=lru, $csize=1e3, $window=60, $variance=0.05, $mytime=1800, $kappa=1, $priceratiovalue=10, $pricebits=0"
attr mytime 1800
attr network networks.cost_scenario_network
attr pricebits 0
attr priceratiovalue 10
attr processid 9954
attr rep 7
attr repetition 0
attr replication #0
attr resultdir results
attr runnumber 19
attr seedset 7
attr ttl 10
attr variance 0.05
attr window 60

scalar . 	a 	1
scalar . 	csize 	1e3
scalar . 	ctlg 	1e5
scalar . 	kappa 	1
scalar . 	lambda 	100
scalar . 	mytime 	1800
scalar . 	pricebits 	0
scalar . 	priceratiovalue 	10
scalar . 	rep 	7
scalar . 	ttl 	10
scalar . 	variance 	0.05
scalar . 	window 	60
scalar cost_scenario_network.content_distribution 	repo-0 	1
scalar cost_scenario_network.content_distribution 	repo-1 	2
scalar cost_scenario_network.content_distribution 	repo-2 	3
scalar cost_scenario_network.content_distribution 	client-0 	0
scalar cost_scenario_network.content_distribution 	repo-0_card 	33104
scalar cost_scenario_network.content_distribution 	repo-0_price 	10
scalar cost_scenario_network.content_distribution 	repo-1_card 	33508
scalar cost_scenario_network.content_distribution 	repo-1_price 	1
scalar cost_scenario_network.content_distribution 	repo-2_card 	33388
scalar cost_scenario_network.content_distribution 	repo-2_price 	0
scalar cost_scenario_network.statistics 	repo_popularity[0] 	0.26773957660795
scalar cost_scenario_network.statistics 	repo_popularity[1] 	0.3166002505484
scalar cost_scenario_network.statistics 	repo_popularity[2] 	0.41566017284365
scalar cost_scenario_network.statistics 	stabilization_time 	175.7
scalar cost_scenario_network.statistics 	p_hit 	0.23591806000034
scalar cost_scenario_network.statistics 	interests 	73041.25
scalar cost_scenario_network.statistics 	data 	27904.75
scalar cost_scenario_network.statistics 	hdistance 	1.236460514218
scalar cost_scenario_network.statistics 	avg_time 	0
scalar cost_scenario_network.statistics 	downloads 	180546
scalar cost_scenario_network.statistics 	total_cost 	401556
scalar cost_scenario_network.statistics 	total_replicas 	100000
scalar cost_scenario_network.statistics 	inner_hit 	0.38176974289101
scalar cost_scenario_network.statistics 	interests_sent 	180546
scalar cost_scenario_network.node[0].core_layer 	interests[0] 	180546
scalar cost_scenario_network.node[0].core_layer 	data[0] 	111619
scalar cost_scenario_network.node[0].core_layer 	repo_int[0] 	111619
scalar cost_scenario_network.node[0].content_store 	p_hit[0] 	0.38176974289101
scalar cost_scenario_network.node[0].content_store 	hits[0] 	68927
scalar cost_scenario_network.node[0].content_store 	misses[0] 	111619
scalar cost_scenario_network.node[0].content_store 	decision_yes[0] 	1183
scalar cost_scenario_network.node[0].content_store 	decision_no[0] 	110436
scalar cost_scenario_network.node[0].content_store 	decision_ratio[0] 	0.010598554009622
scalar cost_scenario_network.node[1].core_layer 	interests[1] 	36507
scalar cost_scenario_network.node[1].core_layer 	repo_load[1] 	36507
scalar cost_scenario_network.node[1].core_layer 	data[1] 	0
scalar cost_scenario_network.node[1].content_store 	p_hit[1] 	0
scalar cost_scenario_network.node[1].content_store 	hits[1] 	0
scalar cost_scenario_network.node[1].content_store 	misses[1] 	36507
scalar cost_scenario_network.node[1].content_store 	decision_yes[1] 	0
scalar cost_scenario_network.node[1].content_store 	decision_no[1] 	36507
scalar cost_scenario_network.node[1].content_store 	decision_ratio[1] 	0
scalar cost_scenario_network.node[2].core_layer 	interests[2] 	36486
scalar cost_scenario_network.node[2].core_layer 	repo_load[2] 	36486
scalar cost_scenario_network.node[2].core_layer 	data[2] 	0
scalar cost_scenario_network.node[2].content_store 	p_hit[2] 	0
scalar cost_scenario_network.node[2].content_store 	hits[2] 	0
scalar cost_scenario_network.node[2].content_store 	misses[2] 	36486
scalar cost_scenario_network.node[2].content_store 	decision_yes[2] 	0
scalar cost_scenario_network.node[2].content_store 	decision_no[2] 	36486
scalar cost_scenario_network.node[2].content_store 	decision_ratio[2] 	0
scalar cost_scenario_network.node[3].core_layer 	interests[3] 	38626
scalar cost_scenario_network.node[3].core_layer 	repo_load[3] 	38626
scalar cost_scenario_network.node[3].core_layer 	data[3] 	0
scalar cost_scenario_network.node[3].content_store 	p_hit[3] 	0
scalar cost_scenario_network.node[3].content_store 	hits[3] 	0
scalar cost_scenario_network.node[3].content_store 	misses[3] 	38626
scalar cost_scenario_network.node[3].content_store 	decision_yes[3] 	0
scalar cost_scenario_network.node[3].content_store 	decision_no[3] 	38626
scalar cost_scenario_network.node[3].content_store 	decision_ratio[3] 	0
scalar cost_scenario_network.client[0] 	hdistance[0] 	1.236460514218
scalar cost_scenario_network.client[0] 	downloads[0] 	180546
scalar cost_scenario_network.client[0] 	avg_time[0] 	0
scalar cost_scenario_network.client[0] 	interests_sent[0] 	180546
