version 2
run General-2-20150710-19:31:59-1446
attr D lce
attr F spr
attr R always_highq
attr a 1
attr brates 0.3_3.5
attr configname General
attr datetime 20150710-19:31:59
attr experiment General
attr inifile omnetpp.ini
attr iterationvars "$net=video_simple_scenario, $rep=0, $lambda=100, $a=1, $brates=0.3_3.5, $F=spr, $ttl=1000, $D=lce, $R=always_highq, $window=60, $variance=0.05, $mytime=180"
attr iterationvars2 "$net=video_simple_scenario, $rep=0, $lambda=100, $a=1, $brates=0.3_3.5, $F=spr, $ttl=1000, $D=lce, $R=always_highq, $window=60, $variance=0.05, $mytime=180, $repetition=0"
attr lambda 100
attr measurement "$net=video_simple_scenario, $rep=0, $lambda=100, $a=1, $brates=0.3_3.5, $F=spr, $ttl=1000, $D=lce, $R=always_highq, $window=60, $variance=0.05, $mytime=180"
attr mytime 180
attr net video_simple_scenario
attr network networks.${net=video_simple_scenario}_network
attr processid 1446
attr rep 0
attr repetition 0
attr replication #0
attr resultdir results
attr runnumber 2
attr seedset 0
attr ttl 1000
attr variance 0.05
attr window 60

scalar . 	a 	1
scalar . 	lambda 	100
scalar . 	mytime 	180
scalar . 	rep 	0
scalar . 	ttl 	1000
scalar . 	variance 	0.05
scalar . 	window 	60
scalar video_simple_scenario_network.content_distribution 	repo-0 	0
scalar video_simple_scenario_network.content_distribution 	client-0 	1
scalar video_simple_scenario_network.content_distribution 	repo-0_card 	10
scalar video_simple_scenario_network.content_distribution 	repo-0_price 	0
scalar video_simple_scenario_network.statistics 	stabilization_time 	60.1
scalar video_simple_scenario_network.statistics 	p_hit 	0.05215732174638
scalar video_simple_scenario_network.statistics 	interests 	31184.5
scalar video_simple_scenario_network.statistics 	data 	14779
scalar video_simple_scenario_network.statistics 	hdistance 	1.6391969831411
scalar video_simple_scenario_network.statistics 	avg_time 	0
scalar video_simple_scenario_network.statistics 	downloads 	18032
scalar video_simple_scenario_network.statistics 	total_cost 	0
scalar video_simple_scenario_network.statistics 	total_replicas 	10
scalar video_simple_scenario_network.statistics 	"representations_downloaded 0.819598:0.180402:" 	0
scalar video_simple_scenario_network.statistics 	"slots_per_representation 100:1167:" 	0
scalar video_simple_scenario_network.statistics 	inner_hit 	238185.21350932
scalar video_simple_scenario_network.statistics 	interests_sent 	18032
scalar video_simple_scenario_network.node[0].core_layer 	interests[0] 	29558
scalar video_simple_scenario_network.node[0].core_layer 	repo_load[0] 	29558
scalar video_simple_scenario_network.node[0].core_layer 	data[0] 	0
scalar video_simple_scenario_network.node[0].core_layer 	slots_sent[face$o[1]->client[0]] 	0
scalar video_simple_scenario_network.node[0].core_layer 	slots_sent[face$o[2]->node[1]] 	18724993
scalar video_simple_scenario_network.node[0].content_store 	p_hit[0] 	0
scalar video_simple_scenario_network.node[0].content_store 	hits[0] 	0
scalar video_simple_scenario_network.node[0].content_store 	misses[0] 	29558
scalar video_simple_scenario_network.node[0].content_store 	decision_yes[0] 	0
scalar video_simple_scenario_network.node[0].content_store 	decision_no[0] 	29558
scalar video_simple_scenario_network.node[0].content_store 	decision_ratio[0] 	0
scalar video_simple_scenario_network.node[1].core_layer 	interests[1] 	32811
scalar video_simple_scenario_network.node[1].core_layer 	data[1] 	29558
scalar video_simple_scenario_network.node[1].core_layer 	slots_sent[face$o[1]->client[1]] 	5274151
scalar video_simple_scenario_network.node[1].core_layer 	slots_sent[face$o[2]->node[0]] 	0
scalar video_simple_scenario_network.node[1].content_store 	p_hit[1] 	0.099143579896986
scalar video_simple_scenario_network.node[1].content_store 	hits[1] 	3253
scalar video_simple_scenario_network.node[1].content_store 	misses[1] 	29558
scalar video_simple_scenario_network.node[1].content_store 	decision_yes[1] 	14779
scalar video_simple_scenario_network.node[1].content_store 	decision_no[1] 	14779
scalar video_simple_scenario_network.node[1].content_store 	decision_ratio[1] 	0.5
scalar video_simple_scenario_network.node[1].proactive_component 	hdistance[1].proactive_component 	2
scalar video_simple_scenario_network.node[1].proactive_component 	downloads[1].proactive_component 	19707
scalar video_simple_scenario_network.node[1].proactive_component 	avg_time[1].proactive_component 	0
scalar video_simple_scenario_network.node[1].proactive_component 	interests_sent[1].proactive_component 	19707
scalar video_simple_scenario_network.client[1] 	hdistance[1].real 	1.6391969831411
scalar video_simple_scenario_network.client[1] 	downloads[1].real 	18032
scalar video_simple_scenario_network.client[1] 	avg_time[1].real 	0
scalar video_simple_scenario_network.client[1] 	interests_sent[1].real 	18032
