version 2
run General-16-20150320-08:45:18-7848
attr D costaware0.01
attr F nrr
attr R lru
attr a 1
attr configname General
attr csize 1e3
attr ctlg 1e5
attr datetime 20150320-08:45:18
attr experiment General
attr inifile omnetpp.ini
attr iterationvars "$rep=15, $net=cost_scenario, $lambda=100, $a=1, $ctlg=1e5, $F=nrr, $ttl=10, $D=costaware0.01, $R=lru, $csize=1e3, $window=60, $variance=0.05, $mytime=9000000, $kappa=1, $priceratiovalue=2, $splits=0.333_0.333_0.334, $pricebits=0"
attr iterationvars2 "$rep=15, $net=cost_scenario, $lambda=100, $a=1, $ctlg=1e5, $F=nrr, $ttl=10, $D=costaware0.01, $R=lru, $csize=1e3, $window=60, $variance=0.05, $mytime=9000000, $kappa=1, $priceratiovalue=2, $splits=0.333_0.333_0.334, $pricebits=0, $repetition=0"
attr kappa 1
attr lambda 100
attr measurement "$rep=15, $net=cost_scenario, $lambda=100, $a=1, $ctlg=1e5, $F=nrr, $ttl=10, $D=costaware0.01, $R=lru, $csize=1e3, $window=60, $variance=0.05, $mytime=9000000, $kappa=1, $priceratiovalue=2, $splits=0.333_0.333_0.334, $pricebits=0"
attr mytime 9000000
attr net cost_scenario
attr network networks.${net=cost_scenario}_network
attr pricebits 0
attr priceratiovalue 2
attr processid 7848
attr rep 15
attr repetition 0
attr replication #0
attr resultdir results
attr runnumber 16
attr seedset 15
attr splits 0.333_0.333_0.334
attr ttl 10
attr variance 0.05
attr window 60

scalar . 	a 	1
scalar . 	csize 	1e3
scalar . 	ctlg 	1e5
scalar . 	kappa 	1
scalar . 	lambda 	100
scalar . 	mytime 	9000000
scalar . 	pricebits 	0
scalar . 	priceratiovalue 	2
scalar . 	rep 	15
scalar . 	ttl 	10
scalar . 	variance 	0.05
scalar . 	window 	60
scalar cost_scenario_network.content_distribution 	repo-0 	1
scalar cost_scenario_network.content_distribution 	repo-1 	2
scalar cost_scenario_network.content_distribution 	repo-2 	3
scalar cost_scenario_network.content_distribution 	client-0 	0
scalar cost_scenario_network.content_distribution 	repo-0_card 	33354
scalar cost_scenario_network.content_distribution 	repo-0_price 	2
scalar cost_scenario_network.content_distribution 	repo-1_card 	33285
scalar cost_scenario_network.content_distribution 	repo-1_price 	1
scalar cost_scenario_network.content_distribution 	repo-2_card 	33361
scalar cost_scenario_network.content_distribution 	repo-2_price 	0
scalar cost_scenario_network.statistics 	repo_popularity[0] 	0.40056520353238
scalar cost_scenario_network.statistics 	repo_popularity[1] 	0.28606217145892
scalar cost_scenario_network.statistics 	repo_popularity[2] 	0.31337262500871
scalar cost_scenario_network.statistics 	stabilization_time 	1880.2
scalar cost_scenario_network.statistics 	p_hit 	0.28263909442337
scalar cost_scenario_network.statistics 	interests 	350838337.5
scalar cost_scenario_network.statistics 	data 	125838853.75
scalar cost_scenario_network.statistics 	hdistance 	1.1185701553861
scalar cost_scenario_network.statistics 	avg_time 	0
scalar cost_scenario_network.statistics 	downloads 	899997935
scalar cost_scenario_network.statistics 	total_cost 	328472655
scalar cost_scenario_network.statistics 	total_replicas 	100000
scalar cost_scenario_network.statistics 	inner_hit 	0.44071492230702
scalar cost_scenario_network.statistics 	interests_sent 	899997935
scalar cost_scenario_network.node[0].core_layer 	interests[0] 	899997935
scalar cost_scenario_network.node[0].core_layer 	data[0] 	503355415
scalar cost_scenario_network.node[0].core_layer 	repo_int[0] 	503355415
scalar cost_scenario_network.node[0].content_store 	p_hit[0] 	0.44071492230702
scalar cost_scenario_network.node[0].content_store 	hits[0] 	396642520
scalar cost_scenario_network.node[0].content_store 	misses[0] 	503355415
scalar cost_scenario_network.node[0].content_store 	decision_yes[0] 	3279764
scalar cost_scenario_network.node[0].content_store 	decision_no[0] 	500075651
scalar cost_scenario_network.node[0].content_store 	decision_ratio[0] 	0.0065158015633943
scalar cost_scenario_network.node[0].content_store 	cache_value[0] 	8.7266279998388
scalar cost_scenario_network.node[0].content_store 	average_price_of_cache[0] 	1.58
scalar cost_scenario_network.node[0].content_store 	correction_factor[0] 	0.00999000999001
scalar cost_scenario_network.node[0].content_store 	kappa[0] 	1
scalar cost_scenario_network.node[1].core_layer 	interests[1] 	107143995
scalar cost_scenario_network.node[1].core_layer 	repo_load[1] 	107143995
scalar cost_scenario_network.node[1].core_layer 	data[1] 	0
scalar cost_scenario_network.node[1].content_store 	p_hit[1] 	0
scalar cost_scenario_network.node[1].content_store 	hits[1] 	0
scalar cost_scenario_network.node[1].content_store 	misses[1] 	107143995
scalar cost_scenario_network.node[1].content_store 	decision_yes[1] 	0
scalar cost_scenario_network.node[1].content_store 	decision_no[1] 	107143995
scalar cost_scenario_network.node[1].content_store 	decision_ratio[1] 	0
scalar cost_scenario_network.node[1].content_store 	cache_value[1] 	1.69380406788e-316
scalar cost_scenario_network.node[1].content_store 	average_price_of_cache[1] 	-nan
scalar cost_scenario_network.node[1].content_store 	correction_factor[1] 	0.00999000999001
scalar cost_scenario_network.node[1].content_store 	kappa[1] 	1
scalar cost_scenario_network.node[2].core_layer 	interests[2] 	114184665
scalar cost_scenario_network.node[2].core_layer 	repo_load[2] 	114184665
scalar cost_scenario_network.node[2].core_layer 	data[2] 	0
scalar cost_scenario_network.node[2].content_store 	p_hit[2] 	0
scalar cost_scenario_network.node[2].content_store 	hits[2] 	0
scalar cost_scenario_network.node[2].content_store 	misses[2] 	114184665
scalar cost_scenario_network.node[2].content_store 	decision_yes[2] 	0
scalar cost_scenario_network.node[2].content_store 	decision_no[2] 	114184665
scalar cost_scenario_network.node[2].content_store 	decision_ratio[2] 	0
scalar cost_scenario_network.node[2].content_store 	cache_value[2] 	1.6939629593917e-316
scalar cost_scenario_network.node[2].content_store 	average_price_of_cache[2] 	-nan
scalar cost_scenario_network.node[2].content_store 	correction_factor[2] 	0.00999000999001
scalar cost_scenario_network.node[2].content_store 	kappa[2] 	1
scalar cost_scenario_network.node[3].core_layer 	interests[3] 	282026755
scalar cost_scenario_network.node[3].core_layer 	repo_load[3] 	282026755
scalar cost_scenario_network.node[3].core_layer 	data[3] 	0
scalar cost_scenario_network.node[3].content_store 	p_hit[3] 	0
scalar cost_scenario_network.node[3].content_store 	hits[3] 	0
scalar cost_scenario_network.node[3].content_store 	misses[3] 	282026755
scalar cost_scenario_network.node[3].content_store 	decision_yes[3] 	0
scalar cost_scenario_network.node[3].content_store 	decision_no[3] 	282026755
scalar cost_scenario_network.node[3].content_store 	decision_ratio[3] 	0
scalar cost_scenario_network.node[3].content_store 	cache_value[3] 	1.6941218509034e-316
scalar cost_scenario_network.node[3].content_store 	average_price_of_cache[3] 	-nan
scalar cost_scenario_network.node[3].content_store 	correction_factor[3] 	0.00999000999001
scalar cost_scenario_network.node[3].content_store 	kappa[3] 	1
scalar cost_scenario_network.client[0] 	hdistance[0] 	1.1185701553861
scalar cost_scenario_network.client[0] 	downloads[0] 	899997935
scalar cost_scenario_network.client[0] 	avg_time[0] 	0
scalar cost_scenario_network.client[0] 	interests_sent[0] 	899997935
