version 2
run General-2-20150720-15:47:44-14997
attr C 1e6
attr D lce
attr F spr
attr R lru_repr
attr a 1
attr brates 0.3_0.7_1.5_2.5_3.5
attr configname General
attr ctlg 1e8
attr datetime 20150720-15:47:44
attr experiment General
attr inifile omnetpp.ini
attr iterationvars "$net=abilene_nodelay, $rep=0, $lambda=100, $a=1, $ctlg=1e8, $brates=0.3_0.7_1.5_2.5_3.5, $F=spr, $ttl=1000, $D=lce, $R=lru_repr, $C=1e6, $window=60, $variance=0.05, $mytime=18000"
attr iterationvars2 "$net=abilene_nodelay, $rep=0, $lambda=100, $a=1, $ctlg=1e8, $brates=0.3_0.7_1.5_2.5_3.5, $F=spr, $ttl=1000, $D=lce, $R=lru_repr, $C=1e6, $window=60, $variance=0.05, $mytime=18000, $repetition=0"
attr lambda 100
attr measurement "$net=abilene_nodelay, $rep=0, $lambda=100, $a=1, $ctlg=1e8, $brates=0.3_0.7_1.5_2.5_3.5, $F=spr, $ttl=1000, $D=lce, $R=lru_repr, $C=1e6, $window=60, $variance=0.05, $mytime=18000"
attr mytime 18000
attr net abilene_nodelay
attr network networks.${net=abilene_nodelay}_network
attr processid 14997
attr rep 0
attr repetition 0
attr replication #0
attr resultdir results
attr runnumber 2
attr seedset 0
attr ttl 1000
attr variance 0.05
attr window 60

scalar . 	C 	1e6
scalar . 	a 	1
scalar . 	ctlg 	1e8
scalar . 	lambda 	100
scalar . 	mytime 	18000
scalar . 	rep 	0
scalar . 	ttl 	1000
scalar . 	variance 	0.05
scalar . 	window 	60
scalar abilene_nodelay_network.content_distribution 	repo-0 	5
scalar abilene_nodelay_network.content_distribution 	repo-1 	8
scalar abilene_nodelay_network.content_distribution 	repo-2 	9
scalar abilene_nodelay_network.content_distribution 	repo-3 	0
scalar abilene_nodelay_network.content_distribution 	repo-4 	1
scalar abilene_nodelay_network.content_distribution 	repo-5 	7
scalar abilene_nodelay_network.content_distribution 	repo-6 	6
scalar abilene_nodelay_network.content_distribution 	repo-7 	2
scalar abilene_nodelay_network.content_distribution 	repo-8 	4
scalar abilene_nodelay_network.content_distribution 	repo-9 	10
scalar abilene_nodelay_network.content_distribution 	repo-10 	3
scalar abilene_nodelay_network.content_distribution 	client-0 	10
scalar abilene_nodelay_network.content_distribution 	client-1 	9
scalar abilene_nodelay_network.content_distribution 	client-2 	8
scalar abilene_nodelay_network.content_distribution 	client-3 	7
scalar abilene_nodelay_network.content_distribution 	client-4 	3
scalar abilene_nodelay_network.content_distribution 	client-5 	6
scalar abilene_nodelay_network.content_distribution 	client-6 	5
scalar abilene_nodelay_network.content_distribution 	client-7 	1
scalar abilene_nodelay_network.content_distribution 	client-8 	4
scalar abilene_nodelay_network.content_distribution 	client-9 	0
scalar abilene_nodelay_network.content_distribution 	client-10 	2
scalar abilene_nodelay_network.content_distribution 	repo-0_card 	9095979
scalar abilene_nodelay_network.content_distribution 	repo-0_price 	0
scalar abilene_nodelay_network.content_distribution 	repo-1_card 	9088625
scalar abilene_nodelay_network.content_distribution 	repo-1_price 	0
scalar abilene_nodelay_network.content_distribution 	repo-2_card 	9091688
scalar abilene_nodelay_network.content_distribution 	repo-2_price 	0
scalar abilene_nodelay_network.content_distribution 	repo-3_card 	9088505
scalar abilene_nodelay_network.content_distribution 	repo-3_price 	0
scalar abilene_nodelay_network.content_distribution 	repo-4_card 	9088374
scalar abilene_nodelay_network.content_distribution 	repo-4_price 	0
scalar abilene_nodelay_network.content_distribution 	repo-5_card 	9091947
scalar abilene_nodelay_network.content_distribution 	repo-5_price 	0
scalar abilene_nodelay_network.content_distribution 	repo-6_card 	9088127
scalar abilene_nodelay_network.content_distribution 	repo-6_price 	0
scalar abilene_nodelay_network.content_distribution 	repo-7_card 	9091123
scalar abilene_nodelay_network.content_distribution 	repo-7_price 	0
scalar abilene_nodelay_network.content_distribution 	repo-8_card 	9090920
scalar abilene_nodelay_network.content_distribution 	repo-8_price 	0
scalar abilene_nodelay_network.content_distribution 	repo-9_card 	9093199
scalar abilene_nodelay_network.content_distribution 	repo-9_price 	0
scalar abilene_nodelay_network.content_distribution 	repo-10_card 	9091513
scalar abilene_nodelay_network.content_distribution 	repo-10_price 	0
scalar abilene_nodelay_network.statistics 	stabilization_time 	36060
scalar abilene_nodelay_network.statistics 	p_hit 	0.4136746140957
scalar abilene_nodelay_network.statistics 	interests 	3368846.2727273
scalar abilene_nodelay_network.statistics 	data 	1291424.6363636
scalar abilene_nodelay_network.statistics 	hdistance 	0.78655937797131
scalar abilene_nodelay_network.statistics 	avg_time 	0
scalar abilene_nodelay_network.statistics 	downloads 	19797230
scalar abilene_nodelay_network.statistics 	total_cost 	0
scalar abilene_nodelay_network.statistics 	total_replicas 	100000000
scalar abilene_nodelay_network.statistics 	"representations_downloaded 0.348447:0.0255321:0.014864:0.0104599:0.600697:" 	0
scalar abilene_nodelay_network.statistics 	"slots_per_representation 100:233:500:833:1167:" 	0
scalar abilene_nodelay_network.statistics 	inner_hit 	0.62004937054325
scalar abilene_nodelay_network.statistics 	execution_time 	3052
scalar abilene_nodelay_network.node[0].core_layer 	interests[0] 	2421012
scalar abilene_nodelay_network.node[0].core_layer 	repo_load[0] 	637885
scalar abilene_nodelay_network.node[0].core_layer 	data[0] 	597715
scalar abilene_nodelay_network.node[0].core_layer 	slots_sent[face$o[1]->client[0]] 	1348569302
scalar abilene_nodelay_network.node[0].core_layer 	slots_sent[face$o[2]->node[1]] 	96045774
scalar abilene_nodelay_network.node[0].core_layer 	slots_sent[face$o[3]->node[10]] 	26187383
scalar abilene_nodelay_network.node[0].content_store 	p_hit[0] 	0.48963491300332
scalar abilene_nodelay_network.node[0].content_store 	hits[0] 	1185412
scalar abilene_nodelay_network.node[0].content_store 	misses[0] 	1235600
scalar abilene_nodelay_network.node[0].content_store 	decision_yes[0] 	597715
scalar abilene_nodelay_network.node[0].content_store 	decision_no[0] 	637885
scalar abilene_nodelay_network.node[0].content_store 	decision_ratio[0] 	0.48374473939786
scalar abilene_nodelay_network.node[0].content_store 	"representation_breakdown[0] 1307838:121264:44762:25101:126244:" 	0
scalar abilene_nodelay_network.node[0].proactive_component 	hdistance[0].proactive_component 	1.8627699959345
scalar abilene_nodelay_network.node[0].proactive_component 	downloads[0].proactive_component 	378802
scalar abilene_nodelay_network.node[0].proactive_component 	avg_time[0].proactive_component 	0
scalar abilene_nodelay_network.node[1].core_layer 	interests[1] 	3838942
scalar abilene_nodelay_network.node[1].core_layer 	repo_load[1] 	707165
scalar abilene_nodelay_network.node[1].core_layer 	data[1] 	1665306
scalar abilene_nodelay_network.node[1].core_layer 	slots_sent[face$o[1]->client[1]] 	1361743723
scalar abilene_nodelay_network.node[1].core_layer 	slots_sent[face$o[2]->node[0]] 	115315802
scalar abilene_nodelay_network.node[1].core_layer 	slots_sent[face$o[3]->node[10]] 	84774600
scalar abilene_nodelay_network.node[1].core_layer 	slots_sent[face$o[4]->node[2]] 	220316418
scalar abilene_nodelay_network.node[1].content_store 	p_hit[1] 	0.38199873819401
scalar abilene_nodelay_network.node[1].content_store 	hits[1] 	1466471
scalar abilene_nodelay_network.node[1].content_store 	misses[1] 	2372471
scalar abilene_nodelay_network.node[1].content_store 	decision_yes[1] 	1665306
scalar abilene_nodelay_network.node[1].content_store 	decision_no[1] 	707165
scalar abilene_nodelay_network.node[1].content_store 	decision_ratio[1] 	0.70192891715009
scalar abilene_nodelay_network.node[1].content_store 	"representation_breakdown[1] 3255319:399249:136298:71159:258932:" 	0
scalar abilene_nodelay_network.node[1].proactive_component 	hdistance[1].proactive_component 	2.0521389395966
scalar abilene_nodelay_network.node[1].proactive_component 	downloads[1].proactive_component 	983852
scalar abilene_nodelay_network.node[1].proactive_component 	avg_time[1].proactive_component 	0
scalar abilene_nodelay_network.node[2].core_layer 	interests[2] 	4891779
scalar abilene_nodelay_network.node[2].core_layer 	repo_load[2] 	740208
scalar abilene_nodelay_network.node[2].core_layer 	data[2] 	2419821
scalar abilene_nodelay_network.node[2].core_layer 	slots_sent[face$o[1]->client[2]] 	1374718567
scalar abilene_nodelay_network.node[2].core_layer 	slots_sent[face$o[2]->node[1]] 	231518517
scalar abilene_nodelay_network.node[2].core_layer 	slots_sent[face$o[3]->node[3]] 	275014997
scalar abilene_nodelay_network.node[2].core_layer 	slots_sent[face$o[4]->node[8]] 	113705458
scalar abilene_nodelay_network.node[2].content_store 	p_hit[2] 	0.35401231331178
scalar abilene_nodelay_network.node[2].content_store 	hits[2] 	1731750
scalar abilene_nodelay_network.node[2].content_store 	misses[2] 	3160029
scalar abilene_nodelay_network.node[2].content_store 	decision_yes[2] 	2419821
scalar abilene_nodelay_network.node[2].content_store 	decision_no[2] 	740208
scalar abilene_nodelay_network.node[2].content_store 	decision_ratio[2] 	0.76575911170435
scalar abilene_nodelay_network.node[2].content_store 	"representation_breakdown[2] 4412653:604050:205190:104320:338901:" 	0
scalar abilene_nodelay_network.node[2].proactive_component 	hdistance[2].proactive_component 	2.1582172457988
scalar abilene_nodelay_network.node[2].proactive_component 	downloads[2].proactive_component 	1621334
scalar abilene_nodelay_network.node[2].proactive_component 	avg_time[2].proactive_component 	0
scalar abilene_nodelay_network.node[3].core_layer 	interests[3] 	4640452
scalar abilene_nodelay_network.node[3].core_layer 	repo_load[3] 	682087
scalar abilene_nodelay_network.node[3].core_layer 	data[3] 	2226528
scalar abilene_nodelay_network.node[3].core_layer 	slots_sent[face$o[1]->client[3]] 	1429498690
scalar abilene_nodelay_network.node[3].core_layer 	slots_sent[face$o[2]->node[2]] 	273998286
scalar abilene_nodelay_network.node[3].core_layer 	slots_sent[face$o[3]->node[4]] 	176814739
scalar abilene_nodelay_network.node[3].core_layer 	slots_sent[face$o[4]->node[7]] 	123273216
scalar abilene_nodelay_network.node[3].content_store 	p_hit[3] 	0.37320437750461
scalar abilene_nodelay_network.node[3].content_store 	hits[3] 	1731837
scalar abilene_nodelay_network.node[3].content_store 	misses[3] 	2908615
scalar abilene_nodelay_network.node[3].content_store 	decision_yes[3] 	2226528
scalar abilene_nodelay_network.node[3].content_store 	decision_no[3] 	682087
scalar abilene_nodelay_network.node[3].content_store 	decision_ratio[3] 	0.7654942300717
scalar abilene_nodelay_network.node[3].content_store 	"representation_breakdown[3] 4226759:552059:188040:95996:326833:" 	0
scalar abilene_nodelay_network.node[3].proactive_component 	hdistance[3].proactive_component 	2.117504341177
scalar abilene_nodelay_network.node[3].proactive_component 	downloads[3].proactive_component 	1481741
scalar abilene_nodelay_network.node[3].proactive_component 	avg_time[3].proactive_component 	0
scalar abilene_nodelay_network.node[4].core_layer 	interests[4] 	3052010
scalar abilene_nodelay_network.node[4].core_layer 	repo_load[4] 	638077
scalar abilene_nodelay_network.node[4].core_layer 	data[4] 	1091260
scalar abilene_nodelay_network.node[4].core_layer 	slots_sent[face$o[1]->client[4]] 	1382107914
scalar abilene_nodelay_network.node[4].core_layer 	slots_sent[face$o[2]->node[3]] 	157189582
scalar abilene_nodelay_network.node[4].core_layer 	slots_sent[face$o[3]->node[5]] 	98182985
scalar abilene_nodelay_network.node[4].content_store 	p_hit[4] 	0.43337767569569
scalar abilene_nodelay_network.node[4].content_store 	hits[4] 	1322673
scalar abilene_nodelay_network.node[4].content_store 	misses[4] 	1729337
scalar abilene_nodelay_network.node[4].content_store 	decision_yes[4] 	1091260
scalar abilene_nodelay_network.node[4].content_store 	decision_no[4] 	638077
scalar abilene_nodelay_network.node[4].content_store 	decision_ratio[4] 	0.63102796042645
scalar abilene_nodelay_network.node[4].content_store 	"representation_breakdown[4] 2224004:246568:86824:46758:193838:" 	0
scalar abilene_nodelay_network.node[4].proactive_component 	hdistance[4].proactive_component 	1.9310991313704
scalar abilene_nodelay_network.node[4].proactive_component 	downloads[4].proactive_component 	620863
scalar abilene_nodelay_network.node[4].proactive_component 	avg_time[4].proactive_component 	0
scalar abilene_nodelay_network.node[5].core_layer 	interests[5] 	2594042
scalar abilene_nodelay_network.node[5].core_layer 	repo_load[5] 	748562
scalar abilene_nodelay_network.node[5].core_layer 	data[5] 	712381
scalar abilene_nodelay_network.node[5].core_layer 	slots_sent[face$o[1]->client[5]] 	1249620546
scalar abilene_nodelay_network.node[5].core_layer 	slots_sent[face$o[2]->node[4]] 	87022904
scalar abilene_nodelay_network.node[5].core_layer 	slots_sent[face$o[3]->node[6]] 	64159520
scalar abilene_nodelay_network.node[5].content_store 	p_hit[5] 	0.43680827064481
scalar abilene_nodelay_network.node[5].content_store 	hits[5] 	1133099
scalar abilene_nodelay_network.node[5].content_store 	misses[5] 	1460943
scalar abilene_nodelay_network.node[5].content_store 	decision_yes[5] 	712381
scalar abilene_nodelay_network.node[5].content_store 	decision_no[5] 	748562
scalar abilene_nodelay_network.node[5].content_store 	decision_ratio[5] 	0.4876172444784
scalar abilene_nodelay_network.node[5].content_store 	"representation_breakdown[5] 1519847:147749:52862:28671:128233:" 	0
scalar abilene_nodelay_network.node[5].proactive_component 	hdistance[5].proactive_component 	1.9547401852042
scalar abilene_nodelay_network.node[5].proactive_component 	downloads[5].proactive_component 	478283
scalar abilene_nodelay_network.node[5].proactive_component 	avg_time[5].proactive_component 	0
scalar abilene_nodelay_network.node[6].core_layer 	interests[6] 	2829777
scalar abilene_nodelay_network.node[6].core_layer 	repo_load[6] 	642410
scalar abilene_nodelay_network.node[6].core_layer 	data[6] 	911260
scalar abilene_nodelay_network.node[6].core_layer 	slots_sent[face$o[1]->client[6]] 	1357090062
scalar abilene_nodelay_network.node[6].core_layer 	slots_sent[face$o[2]->node[5]] 	68726636
scalar abilene_nodelay_network.node[6].core_layer 	slots_sent[face$o[3]->node[7]] 	133818117
scalar abilene_nodelay_network.node[6].content_store 	p_hit[6] 	0.45095673616684
scalar abilene_nodelay_network.node[6].content_store 	hits[6] 	1276107
scalar abilene_nodelay_network.node[6].content_store 	misses[6] 	1553670
scalar abilene_nodelay_network.node[6].content_store 	decision_yes[6] 	911260
scalar abilene_nodelay_network.node[6].content_store 	decision_no[6] 	642410
scalar abilene_nodelay_network.node[6].content_store 	decision_ratio[6] 	0.58652094717668
scalar abilene_nodelay_network.node[6].content_store 	"representation_breakdown[6] 1894655:197844:69736:37032:152750:" 	0
scalar abilene_nodelay_network.node[6].proactive_component 	hdistance[6].proactive_component 	1.9674182108959
scalar abilene_nodelay_network.node[6].proactive_component 	downloads[6].proactive_component 	575260
scalar abilene_nodelay_network.node[6].proactive_component 	avg_time[6].proactive_component 	0
scalar abilene_nodelay_network.node[7].core_layer 	interests[7] 	3653218
scalar abilene_nodelay_network.node[7].core_layer 	repo_load[7] 	674103
scalar abilene_nodelay_network.node[7].core_layer 	data[7] 	1475064
scalar abilene_nodelay_network.node[7].core_layer 	slots_sent[face$o[1]->client[7]] 	1413564311
scalar abilene_nodelay_network.node[7].core_layer 	slots_sent[face$o[2]->node[3]] 	111545309
scalar abilene_nodelay_network.node[7].core_layer 	slots_sent[face$o[3]->node[6]] 	150472432
scalar abilene_nodelay_network.node[7].core_layer 	slots_sent[face$o[4]->node[8]] 	103285603
scalar abilene_nodelay_network.node[7].content_store 	p_hit[7] 	0.41170578925211
scalar abilene_nodelay_network.node[7].content_store 	hits[7] 	1504051
scalar abilene_nodelay_network.node[7].content_store 	misses[7] 	2149167
scalar abilene_nodelay_network.node[7].content_store 	decision_yes[7] 	1475064
scalar abilene_nodelay_network.node[7].content_store 	decision_no[7] 	674103
scalar abilene_nodelay_network.node[7].content_store 	decision_ratio[7] 	0.6863421967674
scalar abilene_nodelay_network.node[7].content_store 	"representation_breakdown[7] 2914303:347613:121264:63694:243332:" 	0
scalar abilene_nodelay_network.node[7].proactive_component 	hdistance[7].proactive_component 	1.9543618821458
scalar abilene_nodelay_network.node[7].proactive_component 	downloads[7].proactive_component 	990444
scalar abilene_nodelay_network.node[7].proactive_component 	avg_time[7].proactive_component 	0
scalar abilene_nodelay_network.node[8].core_layer 	interests[8] 	3525356
scalar abilene_nodelay_network.node[8].core_layer 	repo_load[8] 	667447
scalar abilene_nodelay_network.node[8].core_layer 	data[8] 	1378145
scalar abilene_nodelay_network.node[8].core_layer 	slots_sent[face$o[1]->client[8]] 	1427182435
scalar abilene_nodelay_network.node[8].core_layer 	slots_sent[face$o[2]->node[2]] 	101045515
scalar abilene_nodelay_network.node[8].core_layer 	slots_sent[face$o[3]->node[7]] 	102333824
scalar abilene_nodelay_network.node[8].core_layer 	slots_sent[face$o[4]->node[9]] 	137476099
scalar abilene_nodelay_network.node[8].content_store 	p_hit[8] 	0.41974881402048
scalar abilene_nodelay_network.node[8].content_store 	hits[8] 	1479764
scalar abilene_nodelay_network.node[8].content_store 	misses[8] 	2045592
scalar abilene_nodelay_network.node[8].content_store 	decision_yes[8] 	1378145
scalar abilene_nodelay_network.node[8].content_store 	decision_no[8] 	667447
scalar abilene_nodelay_network.node[8].content_store 	decision_ratio[8] 	0.6737145041631
scalar abilene_nodelay_network.node[8].content_store 	"representation_breakdown[8] 2739718:322278:113657:60610:241539:" 	0
scalar abilene_nodelay_network.node[8].proactive_component 	hdistance[8].proactive_component 	1.9273483834993
scalar abilene_nodelay_network.node[8].proactive_component 	downloads[8].proactive_component 	907454
scalar abilene_nodelay_network.node[8].proactive_component 	avg_time[8].proactive_component 	0
scalar abilene_nodelay_network.node[9].core_layer 	interests[9] 	2843134
scalar abilene_nodelay_network.node[9].core_layer 	repo_load[9] 	663095
scalar abilene_nodelay_network.node[9].core_layer 	data[9] 	913133
scalar abilene_nodelay_network.node[9].core_layer 	slots_sent[face$o[1]->client[9]] 	1345114963
scalar abilene_nodelay_network.node[9].core_layer 	slots_sent[face$o[2]->node[10]] 	80773751
scalar abilene_nodelay_network.node[9].core_layer 	slots_sent[face$o[3]->node[8]] 	122319281
scalar abilene_nodelay_network.node[9].content_store 	p_hit[9] 	0.44560193082704
scalar abilene_nodelay_network.node[9].content_store 	hits[9] 	1266906
scalar abilene_nodelay_network.node[9].content_store 	misses[9] 	1576228
scalar abilene_nodelay_network.node[9].content_store 	decision_yes[9] 	913133
scalar abilene_nodelay_network.node[9].content_store 	decision_no[9] 	663095
scalar abilene_nodelay_network.node[9].content_store 	decision_ratio[9] 	0.57931530210097
scalar abilene_nodelay_network.node[9].content_store 	"representation_breakdown[9] 1892881:198971:69822:37177:151699:" 	0
scalar abilene_nodelay_network.node[9].proactive_component 	hdistance[9].proactive_component 	1.9461767452117
scalar abilene_nodelay_network.node[9].proactive_component 	downloads[9].proactive_component 	580474
scalar abilene_nodelay_network.node[9].proactive_component 	avg_time[9].proactive_component 	0
scalar abilene_nodelay_network.node[10].core_layer 	interests[10] 	2767587
scalar abilene_nodelay_network.node[10].core_layer 	repo_load[10] 	720931
scalar abilene_nodelay_network.node[10].core_layer 	data[10] 	815058
scalar abilene_nodelay_network.node[10].core_layer 	slots_sent[face$o[1]->client[10]] 	1316147286
scalar abilene_nodelay_network.node[10].core_layer 	slots_sent[face$o[2]->node[0]] 	28036392
scalar abilene_nodelay_network.node[10].core_layer 	slots_sent[face$o[3]->node[1]] 	75962731
scalar abilene_nodelay_network.node[10].core_layer 	slots_sent[face$o[4]->node[9]] 	77627768
scalar abilene_nodelay_network.node[10].content_store 	p_hit[10] 	0.44500787147793
scalar abilene_nodelay_network.node[10].content_store 	hits[10] 	1231598
scalar abilene_nodelay_network.node[10].content_store 	misses[10] 	1535989
scalar abilene_nodelay_network.node[10].content_store 	decision_yes[10] 	815058
scalar abilene_nodelay_network.node[10].content_store 	decision_no[10] 	720931
scalar abilene_nodelay_network.node[10].content_store 	decision_ratio[10] 	0.53064051890997
scalar abilene_nodelay_network.node[10].content_store 	"representation_breakdown[10] 1710808:173670:61292:33303:140667:" 	0
scalar abilene_nodelay_network.node[10].proactive_component 	hdistance[10].proactive_component 	1.9156634572186
scalar abilene_nodelay_network.node[10].proactive_component 	downloads[10].proactive_component 	567595
scalar abilene_nodelay_network.node[10].proactive_component 	avg_time[10].proactive_component 	0
scalar abilene_nodelay_network.client[0] 	hdistance[0].real 	0.93588140679817
scalar abilene_nodelay_network.client[0] 	downloads[0].real 	1798012
scalar abilene_nodelay_network.client[0] 	avg_time[0].real 	0
scalar abilene_nodelay_network.client[1] 	hdistance[1].real 	0.74107290353191
scalar abilene_nodelay_network.client[1] 	downloads[1].real 	1797869
scalar abilene_nodelay_network.client[1] 	avg_time[1].real 	0
scalar abilene_nodelay_network.client[2] 	hdistance[2].real 	0.63678468391177
scalar abilene_nodelay_network.client[2] 	downloads[2].real 	1799624
scalar abilene_nodelay_network.client[2] 	avg_time[2].real 	0
scalar abilene_nodelay_network.client[3] 	hdistance[3].real 	0.63071108687901
scalar abilene_nodelay_network.client[3] 	downloads[3].real 	1801102
scalar abilene_nodelay_network.client[3] 	avg_time[3].real 	0
scalar abilene_nodelay_network.client[4] 	hdistance[4].real 	0.81517366961248
scalar abilene_nodelay_network.client[4] 	downloads[4].real 	1800171
scalar abilene_nodelay_network.client[4] 	avg_time[4].real 	0
scalar abilene_nodelay_network.client[5] 	hdistance[5].real 	0.994327879257
scalar abilene_nodelay_network.client[5] 	downloads[5].real 	1799327
scalar abilene_nodelay_network.client[5] 	avg_time[5].real 	0
scalar abilene_nodelay_network.client[6] 	hdistance[6].real 	0.86960053599178
scalar abilene_nodelay_network.client[6] 	downloads[6].real 	1798535
scalar abilene_nodelay_network.client[6] 	avg_time[6].real 	0
scalar abilene_nodelay_network.client[7] 	hdistance[7].real 	0.67906034440101
scalar abilene_nodelay_network.client[7] 	downloads[7].real 	1798659
scalar abilene_nodelay_network.client[7] 	avg_time[7].real 	0
scalar abilene_nodelay_network.client[8] 	hdistance[8].real 	0.65620966412236
scalar abilene_nodelay_network.client[8] 	downloads[8].real 	1801281
scalar abilene_nodelay_network.client[8] 	avg_time[8].real 	0
scalar abilene_nodelay_network.client[9] 	hdistance[9].real 	0.82223586705248
scalar abilene_nodelay_network.client[9] 	downloads[9].real 	1801252
scalar abilene_nodelay_network.client[9] 	avg_time[9].real 	0
scalar abilene_nodelay_network.client[10] 	hdistance[10].real 	0.87109511612648
scalar abilene_nodelay_network.client[10] 	downloads[10].real 	1801398
scalar abilene_nodelay_network.client[10] 	avg_time[10].real 	0
