version 2
run General-0-20150722-12:20:15-25582
attr C 1e4
attr D lce
attr F spr
attr R lru
attr a 1
attr brates 1
attr configname General
attr ctlg 1e6
attr datetime 20150722-12:20:15
attr experiment General
attr inifile omnetpp.ini
attr iterationvars "$net=barabasi_100nodes, $rep=3, $lambda=100, $a=1, $ctlg=1e6, $brates=1, $F=spr, $ttl=1000, $D=lce, $R=lru, $C=1e4, $window=60, $variance=0.05, $mytime=1800"
attr iterationvars2 "$net=barabasi_100nodes, $rep=3, $lambda=100, $a=1, $ctlg=1e6, $brates=1, $F=spr, $ttl=1000, $D=lce, $R=lru, $C=1e4, $window=60, $variance=0.05, $mytime=1800, $repetition=0"
attr lambda 100
attr measurement "$net=barabasi_100nodes, $rep=3, $lambda=100, $a=1, $ctlg=1e6, $brates=1, $F=spr, $ttl=1000, $D=lce, $R=lru, $C=1e4, $window=60, $variance=0.05, $mytime=1800"
attr mytime 1800
attr net barabasi_100nodes
attr network networks.${net=barabasi_100nodes}_network
attr processid 25582
attr rep 3
attr repetition 0
attr replication #0
attr resultdir results
attr runnumber 0
attr seedset 3
attr ttl 1000
attr variance 0.05
attr window 60

scalar . 	C 	1e4
scalar . 	a 	1
scalar . 	brates 	1
scalar . 	ctlg 	1e6
scalar . 	lambda 	100
scalar . 	mytime 	1800
scalar . 	rep 	3
scalar . 	ttl 	1000
scalar . 	variance 	0.05
scalar . 	window 	60
scalar barabasi_100nodes_network.content_distribution 	repo-0 	9
scalar barabasi_100nodes_network.content_distribution 	repo-1 	15
scalar barabasi_100nodes_network.content_distribution 	repo-2 	64
scalar barabasi_100nodes_network.content_distribution 	repo-3 	28
scalar barabasi_100nodes_network.content_distribution 	repo-4 	89
scalar barabasi_100nodes_network.content_distribution 	repo-5 	93
scalar barabasi_100nodes_network.content_distribution 	repo-6 	29
scalar barabasi_100nodes_network.content_distribution 	repo-7 	8
scalar barabasi_100nodes_network.content_distribution 	repo-8 	73
scalar barabasi_100nodes_network.content_distribution 	repo-9 	0
scalar barabasi_100nodes_network.content_distribution 	repo-10 	40
scalar barabasi_100nodes_network.content_distribution 	repo-11 	36
scalar barabasi_100nodes_network.content_distribution 	repo-12 	16
scalar barabasi_100nodes_network.content_distribution 	repo-13 	11
scalar barabasi_100nodes_network.content_distribution 	repo-14 	54
scalar barabasi_100nodes_network.content_distribution 	repo-15 	88
scalar barabasi_100nodes_network.content_distribution 	repo-16 	62
scalar barabasi_100nodes_network.content_distribution 	repo-17 	33
scalar barabasi_100nodes_network.content_distribution 	repo-18 	72
scalar barabasi_100nodes_network.content_distribution 	repo-19 	78
scalar barabasi_100nodes_network.content_distribution 	repo-20 	49
scalar barabasi_100nodes_network.content_distribution 	repo-21 	51
scalar barabasi_100nodes_network.content_distribution 	repo-22 	77
scalar barabasi_100nodes_network.content_distribution 	repo-23 	69
scalar barabasi_100nodes_network.content_distribution 	repo-24 	13
scalar barabasi_100nodes_network.content_distribution 	repo-25 	25
scalar barabasi_100nodes_network.content_distribution 	repo-26 	92
scalar barabasi_100nodes_network.content_distribution 	repo-27 	86
scalar barabasi_100nodes_network.content_distribution 	repo-28 	30
scalar barabasi_100nodes_network.content_distribution 	repo-29 	12
scalar barabasi_100nodes_network.content_distribution 	repo-30 	65
scalar barabasi_100nodes_network.content_distribution 	repo-31 	31
scalar barabasi_100nodes_network.content_distribution 	repo-32 	57
scalar barabasi_100nodes_network.content_distribution 	repo-33 	27
scalar barabasi_100nodes_network.content_distribution 	repo-34 	18
scalar barabasi_100nodes_network.content_distribution 	repo-35 	22
scalar barabasi_100nodes_network.content_distribution 	repo-36 	23
scalar barabasi_100nodes_network.content_distribution 	repo-37 	94
scalar barabasi_100nodes_network.content_distribution 	repo-38 	74
scalar barabasi_100nodes_network.content_distribution 	repo-39 	80
scalar barabasi_100nodes_network.content_distribution 	repo-40 	71
scalar barabasi_100nodes_network.content_distribution 	repo-41 	17
scalar barabasi_100nodes_network.content_distribution 	repo-42 	46
scalar barabasi_100nodes_network.content_distribution 	repo-43 	7
scalar barabasi_100nodes_network.content_distribution 	repo-44 	75
scalar barabasi_100nodes_network.content_distribution 	repo-45 	84
scalar barabasi_100nodes_network.content_distribution 	repo-46 	96
scalar barabasi_100nodes_network.content_distribution 	repo-47 	44
scalar barabasi_100nodes_network.content_distribution 	repo-48 	5
scalar barabasi_100nodes_network.content_distribution 	repo-49 	4
scalar barabasi_100nodes_network.content_distribution 	repo-50 	50
scalar barabasi_100nodes_network.content_distribution 	repo-51 	34
scalar barabasi_100nodes_network.content_distribution 	repo-52 	6
scalar barabasi_100nodes_network.content_distribution 	repo-53 	85
scalar barabasi_100nodes_network.content_distribution 	repo-54 	79
scalar barabasi_100nodes_network.content_distribution 	repo-55 	42
scalar barabasi_100nodes_network.content_distribution 	repo-56 	97
scalar barabasi_100nodes_network.content_distribution 	repo-57 	45
scalar barabasi_100nodes_network.content_distribution 	repo-58 	37
scalar barabasi_100nodes_network.content_distribution 	repo-59 	3
scalar barabasi_100nodes_network.content_distribution 	repo-60 	82
scalar barabasi_100nodes_network.content_distribution 	repo-61 	14
scalar barabasi_100nodes_network.content_distribution 	repo-62 	53
scalar barabasi_100nodes_network.content_distribution 	repo-63 	48
scalar barabasi_100nodes_network.content_distribution 	repo-64 	32
scalar barabasi_100nodes_network.content_distribution 	repo-65 	81
scalar barabasi_100nodes_network.content_distribution 	repo-66 	41
scalar barabasi_100nodes_network.content_distribution 	repo-67 	90
scalar barabasi_100nodes_network.content_distribution 	repo-68 	38
scalar barabasi_100nodes_network.content_distribution 	repo-69 	66
scalar barabasi_100nodes_network.content_distribution 	repo-70 	67
scalar barabasi_100nodes_network.content_distribution 	repo-71 	95
scalar barabasi_100nodes_network.content_distribution 	repo-72 	99
scalar barabasi_100nodes_network.content_distribution 	repo-73 	21
scalar barabasi_100nodes_network.content_distribution 	repo-74 	43
scalar barabasi_100nodes_network.content_distribution 	repo-75 	87
scalar barabasi_100nodes_network.content_distribution 	repo-76 	39
scalar barabasi_100nodes_network.content_distribution 	repo-77 	91
scalar barabasi_100nodes_network.content_distribution 	repo-78 	52
scalar barabasi_100nodes_network.content_distribution 	repo-79 	76
scalar barabasi_100nodes_network.content_distribution 	repo-80 	68
scalar barabasi_100nodes_network.content_distribution 	repo-81 	70
scalar barabasi_100nodes_network.content_distribution 	repo-82 	2
scalar barabasi_100nodes_network.content_distribution 	repo-83 	58
scalar barabasi_100nodes_network.content_distribution 	repo-84 	1
scalar barabasi_100nodes_network.content_distribution 	repo-85 	63
scalar barabasi_100nodes_network.content_distribution 	repo-86 	83
scalar barabasi_100nodes_network.content_distribution 	repo-87 	55
scalar barabasi_100nodes_network.content_distribution 	repo-88 	20
scalar barabasi_100nodes_network.content_distribution 	repo-89 	60
scalar barabasi_100nodes_network.content_distribution 	repo-90 	61
scalar barabasi_100nodes_network.content_distribution 	repo-91 	19
scalar barabasi_100nodes_network.content_distribution 	repo-92 	35
scalar barabasi_100nodes_network.content_distribution 	repo-93 	10
scalar barabasi_100nodes_network.content_distribution 	repo-94 	59
scalar barabasi_100nodes_network.content_distribution 	repo-95 	98
scalar barabasi_100nodes_network.content_distribution 	repo-96 	56
scalar barabasi_100nodes_network.content_distribution 	repo-97 	26
scalar barabasi_100nodes_network.content_distribution 	repo-98 	47
scalar barabasi_100nodes_network.content_distribution 	repo-99 	24
scalar barabasi_100nodes_network.content_distribution 	client-0 	72
scalar barabasi_100nodes_network.content_distribution 	client-1 	54
scalar barabasi_100nodes_network.content_distribution 	client-2 	80
scalar barabasi_100nodes_network.content_distribution 	client-3 	21
scalar barabasi_100nodes_network.content_distribution 	client-4 	19
scalar barabasi_100nodes_network.content_distribution 	client-5 	95
scalar barabasi_100nodes_network.content_distribution 	client-6 	3
scalar barabasi_100nodes_network.content_distribution 	client-7 	98
scalar barabasi_100nodes_network.content_distribution 	client-8 	25
scalar barabasi_100nodes_network.content_distribution 	client-9 	41
scalar barabasi_100nodes_network.content_distribution 	client-10 	14
scalar barabasi_100nodes_network.content_distribution 	client-11 	73
scalar barabasi_100nodes_network.content_distribution 	client-12 	71
scalar barabasi_100nodes_network.content_distribution 	client-13 	38
scalar barabasi_100nodes_network.content_distribution 	client-14 	49
scalar barabasi_100nodes_network.content_distribution 	client-15 	22
scalar barabasi_100nodes_network.content_distribution 	client-16 	97
scalar barabasi_100nodes_network.content_distribution 	client-17 	47
scalar barabasi_100nodes_network.content_distribution 	client-18 	31
scalar barabasi_100nodes_network.content_distribution 	client-19 	46
scalar barabasi_100nodes_network.content_distribution 	client-20 	5
scalar barabasi_100nodes_network.content_distribution 	client-21 	76
scalar barabasi_100nodes_network.content_distribution 	client-22 	16
scalar barabasi_100nodes_network.content_distribution 	client-23 	92
scalar barabasi_100nodes_network.content_distribution 	client-24 	20
scalar barabasi_100nodes_network.content_distribution 	client-25 	82
scalar barabasi_100nodes_network.content_distribution 	client-26 	9
scalar barabasi_100nodes_network.content_distribution 	client-27 	56
scalar barabasi_100nodes_network.content_distribution 	client-28 	37
scalar barabasi_100nodes_network.content_distribution 	client-29 	6
scalar barabasi_100nodes_network.content_distribution 	client-30 	30
scalar barabasi_100nodes_network.content_distribution 	client-31 	67
scalar barabasi_100nodes_network.content_distribution 	client-32 	70
scalar barabasi_100nodes_network.content_distribution 	client-33 	53
scalar barabasi_100nodes_network.content_distribution 	client-34 	13
scalar barabasi_100nodes_network.content_distribution 	client-35 	10
scalar barabasi_100nodes_network.content_distribution 	client-36 	60
scalar barabasi_100nodes_network.content_distribution 	client-37 	33
scalar barabasi_100nodes_network.content_distribution 	client-38 	42
scalar barabasi_100nodes_network.content_distribution 	client-39 	0
scalar barabasi_100nodes_network.content_distribution 	client-40 	88
scalar barabasi_100nodes_network.content_distribution 	client-41 	36
scalar barabasi_100nodes_network.content_distribution 	client-42 	87
scalar barabasi_100nodes_network.content_distribution 	client-43 	66
scalar barabasi_100nodes_network.content_distribution 	client-44 	55
scalar barabasi_100nodes_network.content_distribution 	client-45 	17
scalar barabasi_100nodes_network.content_distribution 	client-46 	1
scalar barabasi_100nodes_network.content_distribution 	client-47 	51
scalar barabasi_100nodes_network.content_distribution 	client-48 	77
scalar barabasi_100nodes_network.content_distribution 	client-49 	7
scalar barabasi_100nodes_network.content_distribution 	client-50 	26
scalar barabasi_100nodes_network.content_distribution 	client-51 	58
scalar barabasi_100nodes_network.content_distribution 	client-52 	90
scalar barabasi_100nodes_network.content_distribution 	client-53 	40
scalar barabasi_100nodes_network.content_distribution 	client-54 	2
scalar barabasi_100nodes_network.content_distribution 	client-55 	23
scalar barabasi_100nodes_network.content_distribution 	client-56 	65
scalar barabasi_100nodes_network.content_distribution 	client-57 	4
scalar barabasi_100nodes_network.content_distribution 	client-58 	78
scalar barabasi_100nodes_network.content_distribution 	client-59 	99
scalar barabasi_100nodes_network.content_distribution 	client-60 	59
scalar barabasi_100nodes_network.content_distribution 	client-61 	86
scalar barabasi_100nodes_network.content_distribution 	client-62 	44
scalar barabasi_100nodes_network.content_distribution 	client-63 	35
scalar barabasi_100nodes_network.content_distribution 	client-64 	57
scalar barabasi_100nodes_network.content_distribution 	client-65 	52
scalar barabasi_100nodes_network.content_distribution 	client-66 	29
scalar barabasi_100nodes_network.content_distribution 	client-67 	32
scalar barabasi_100nodes_network.content_distribution 	client-68 	84
scalar barabasi_100nodes_network.content_distribution 	client-69 	75
scalar barabasi_100nodes_network.content_distribution 	client-70 	12
scalar barabasi_100nodes_network.content_distribution 	client-71 	96
scalar barabasi_100nodes_network.content_distribution 	client-72 	39
scalar barabasi_100nodes_network.content_distribution 	client-73 	69
scalar barabasi_100nodes_network.content_distribution 	client-74 	24
scalar barabasi_100nodes_network.content_distribution 	client-75 	83
scalar barabasi_100nodes_network.content_distribution 	client-76 	15
scalar barabasi_100nodes_network.content_distribution 	client-77 	63
scalar barabasi_100nodes_network.content_distribution 	client-78 	79
scalar barabasi_100nodes_network.content_distribution 	client-79 	89
scalar barabasi_100nodes_network.content_distribution 	client-80 	94
scalar barabasi_100nodes_network.content_distribution 	client-81 	18
scalar barabasi_100nodes_network.content_distribution 	client-82 	74
scalar barabasi_100nodes_network.content_distribution 	client-83 	62
scalar barabasi_100nodes_network.content_distribution 	client-84 	93
scalar barabasi_100nodes_network.content_distribution 	client-85 	48
scalar barabasi_100nodes_network.content_distribution 	client-86 	64
scalar barabasi_100nodes_network.content_distribution 	client-87 	8
scalar barabasi_100nodes_network.content_distribution 	client-88 	85
scalar barabasi_100nodes_network.content_distribution 	client-89 	81
scalar barabasi_100nodes_network.content_distribution 	client-90 	28
scalar barabasi_100nodes_network.content_distribution 	client-91 	34
scalar barabasi_100nodes_network.content_distribution 	client-92 	45
scalar barabasi_100nodes_network.content_distribution 	client-93 	68
scalar barabasi_100nodes_network.content_distribution 	client-94 	43
scalar barabasi_100nodes_network.content_distribution 	client-95 	91
scalar barabasi_100nodes_network.content_distribution 	client-96 	50
scalar barabasi_100nodes_network.content_distribution 	client-97 	27
scalar barabasi_100nodes_network.content_distribution 	client-98 	61
scalar barabasi_100nodes_network.content_distribution 	client-99 	11
scalar barabasi_100nodes_network.content_distribution 	repo-0_card 	250071
scalar barabasi_100nodes_network.content_distribution 	repo-0_price 	0
scalar barabasi_100nodes_network.content_distribution 	repo-1_card 	250237
scalar barabasi_100nodes_network.content_distribution 	repo-1_price 	0
scalar barabasi_100nodes_network.content_distribution 	repo-2_card 	249820
scalar barabasi_100nodes_network.content_distribution 	repo-2_price 	0
scalar barabasi_100nodes_network.content_distribution 	repo-3_card 	249872
scalar barabasi_100nodes_network.content_distribution 	repo-3_price 	0
scalar barabasi_100nodes_network.content_distribution 	repo-4_card 	0
scalar barabasi_100nodes_network.content_distribution 	repo-4_price 	0
scalar barabasi_100nodes_network.content_distribution 	repo-5_card 	0
scalar barabasi_100nodes_network.content_distribution 	repo-5_price 	0
scalar barabasi_100nodes_network.content_distribution 	repo-6_card 	0
scalar barabasi_100nodes_network.content_distribution 	repo-6_price 	0
scalar barabasi_100nodes_network.content_distribution 	repo-7_card 	0
scalar barabasi_100nodes_network.content_distribution 	repo-7_price 	0
scalar barabasi_100nodes_network.content_distribution 	repo-8_card 	0
scalar barabasi_100nodes_network.content_distribution 	repo-8_price 	0
scalar barabasi_100nodes_network.content_distribution 	repo-9_card 	0
scalar barabasi_100nodes_network.content_distribution 	repo-9_price 	0
scalar barabasi_100nodes_network.content_distribution 	repo-10_card 	0
scalar barabasi_100nodes_network.content_distribution 	repo-10_price 	0
scalar barabasi_100nodes_network.content_distribution 	repo-11_card 	0
scalar barabasi_100nodes_network.content_distribution 	repo-11_price 	0
scalar barabasi_100nodes_network.content_distribution 	repo-12_card 	0
scalar barabasi_100nodes_network.content_distribution 	repo-12_price 	0
scalar barabasi_100nodes_network.content_distribution 	repo-13_card 	0
scalar barabasi_100nodes_network.content_distribution 	repo-13_price 	0
scalar barabasi_100nodes_network.content_distribution 	repo-14_card 	0
scalar barabasi_100nodes_network.content_distribution 	repo-14_price 	0
scalar barabasi_100nodes_network.content_distribution 	repo-15_card 	0
scalar barabasi_100nodes_network.content_distribution 	repo-15_price 	0
scalar barabasi_100nodes_network.content_distribution 	repo-16_card 	0
scalar barabasi_100nodes_network.content_distribution 	repo-16_price 	0
scalar barabasi_100nodes_network.content_distribution 	repo-17_card 	0
scalar barabasi_100nodes_network.content_distribution 	repo-17_price 	0
scalar barabasi_100nodes_network.content_distribution 	repo-18_card 	0
scalar barabasi_100nodes_network.content_distribution 	repo-18_price 	0
scalar barabasi_100nodes_network.content_distribution 	repo-19_card 	0
scalar barabasi_100nodes_network.content_distribution 	repo-19_price 	0
scalar barabasi_100nodes_network.content_distribution 	repo-20_card 	0
scalar barabasi_100nodes_network.content_distribution 	repo-20_price 	0
scalar barabasi_100nodes_network.content_distribution 	repo-21_card 	0
scalar barabasi_100nodes_network.content_distribution 	repo-21_price 	0
scalar barabasi_100nodes_network.content_distribution 	repo-22_card 	0
scalar barabasi_100nodes_network.content_distribution 	repo-22_price 	0
scalar barabasi_100nodes_network.content_distribution 	repo-23_card 	0
scalar barabasi_100nodes_network.content_distribution 	repo-23_price 	0
scalar barabasi_100nodes_network.content_distribution 	repo-24_card 	0
scalar barabasi_100nodes_network.content_distribution 	repo-24_price 	0
scalar barabasi_100nodes_network.content_distribution 	repo-25_card 	0
scalar barabasi_100nodes_network.content_distribution 	repo-25_price 	0
scalar barabasi_100nodes_network.content_distribution 	repo-26_card 	0
scalar barabasi_100nodes_network.content_distribution 	repo-26_price 	0
scalar barabasi_100nodes_network.content_distribution 	repo-27_card 	0
scalar barabasi_100nodes_network.content_distribution 	repo-27_price 	0
scalar barabasi_100nodes_network.content_distribution 	repo-28_card 	0
scalar barabasi_100nodes_network.content_distribution 	repo-28_price 	0
scalar barabasi_100nodes_network.content_distribution 	repo-29_card 	0
scalar barabasi_100nodes_network.content_distribution 	repo-29_price 	0
scalar barabasi_100nodes_network.content_distribution 	repo-30_card 	0
scalar barabasi_100nodes_network.content_distribution 	repo-30_price 	0
scalar barabasi_100nodes_network.content_distribution 	repo-31_card 	0
scalar barabasi_100nodes_network.content_distribution 	repo-31_price 	0
scalar barabasi_100nodes_network.content_distribution 	repo-32_card 	0
scalar barabasi_100nodes_network.content_distribution 	repo-32_price 	0
scalar barabasi_100nodes_network.content_distribution 	repo-33_card 	0
scalar barabasi_100nodes_network.content_distribution 	repo-33_price 	0
scalar barabasi_100nodes_network.content_distribution 	repo-34_card 	0
scalar barabasi_100nodes_network.content_distribution 	repo-34_price 	0
scalar barabasi_100nodes_network.content_distribution 	repo-35_card 	0
scalar barabasi_100nodes_network.content_distribution 	repo-35_price 	0
scalar barabasi_100nodes_network.content_distribution 	repo-36_card 	0
scalar barabasi_100nodes_network.content_distribution 	repo-36_price 	0
scalar barabasi_100nodes_network.content_distribution 	repo-37_card 	0
scalar barabasi_100nodes_network.content_distribution 	repo-37_price 	0
scalar barabasi_100nodes_network.content_distribution 	repo-38_card 	0
scalar barabasi_100nodes_network.content_distribution 	repo-38_price 	0
scalar barabasi_100nodes_network.content_distribution 	repo-39_card 	0
scalar barabasi_100nodes_network.content_distribution 	repo-39_price 	0
scalar barabasi_100nodes_network.content_distribution 	repo-40_card 	0
scalar barabasi_100nodes_network.content_distribution 	repo-40_price 	0
scalar barabasi_100nodes_network.content_distribution 	repo-41_card 	0
scalar barabasi_100nodes_network.content_distribution 	repo-41_price 	0
scalar barabasi_100nodes_network.content_distribution 	repo-42_card 	0
scalar barabasi_100nodes_network.content_distribution 	repo-42_price 	0
scalar barabasi_100nodes_network.content_distribution 	repo-43_card 	0
scalar barabasi_100nodes_network.content_distribution 	repo-43_price 	0
scalar barabasi_100nodes_network.content_distribution 	repo-44_card 	0
scalar barabasi_100nodes_network.content_distribution 	repo-44_price 	0
scalar barabasi_100nodes_network.content_distribution 	repo-45_card 	0
scalar barabasi_100nodes_network.content_distribution 	repo-45_price 	0
scalar barabasi_100nodes_network.content_distribution 	repo-46_card 	0
scalar barabasi_100nodes_network.content_distribution 	repo-46_price 	0
scalar barabasi_100nodes_network.content_distribution 	repo-47_card 	0
scalar barabasi_100nodes_network.content_distribution 	repo-47_price 	0
scalar barabasi_100nodes_network.content_distribution 	repo-48_card 	0
scalar barabasi_100nodes_network.content_distribution 	repo-48_price 	0
scalar barabasi_100nodes_network.content_distribution 	repo-49_card 	0
scalar barabasi_100nodes_network.content_distribution 	repo-49_price 	0
scalar barabasi_100nodes_network.content_distribution 	repo-50_card 	0
scalar barabasi_100nodes_network.content_distribution 	repo-50_price 	0
scalar barabasi_100nodes_network.content_distribution 	repo-51_card 	0
scalar barabasi_100nodes_network.content_distribution 	repo-51_price 	0
scalar barabasi_100nodes_network.content_distribution 	repo-52_card 	0
scalar barabasi_100nodes_network.content_distribution 	repo-52_price 	0
scalar barabasi_100nodes_network.content_distribution 	repo-53_card 	0
scalar barabasi_100nodes_network.content_distribution 	repo-53_price 	0
scalar barabasi_100nodes_network.content_distribution 	repo-54_card 	0
scalar barabasi_100nodes_network.content_distribution 	repo-54_price 	0
scalar barabasi_100nodes_network.content_distribution 	repo-55_card 	0
scalar barabasi_100nodes_network.content_distribution 	repo-55_price 	0
scalar barabasi_100nodes_network.content_distribution 	repo-56_card 	0
scalar barabasi_100nodes_network.content_distribution 	repo-56_price 	0
scalar barabasi_100nodes_network.content_distribution 	repo-57_card 	0
scalar barabasi_100nodes_network.content_distribution 	repo-57_price 	0
scalar barabasi_100nodes_network.content_distribution 	repo-58_card 	0
scalar barabasi_100nodes_network.content_distribution 	repo-58_price 	0
scalar barabasi_100nodes_network.content_distribution 	repo-59_card 	0
scalar barabasi_100nodes_network.content_distribution 	repo-59_price 	0
scalar barabasi_100nodes_network.content_distribution 	repo-60_card 	0
scalar barabasi_100nodes_network.content_distribution 	repo-60_price 	0
scalar barabasi_100nodes_network.content_distribution 	repo-61_card 	0
scalar barabasi_100nodes_network.content_distribution 	repo-61_price 	0
scalar barabasi_100nodes_network.content_distribution 	repo-62_card 	0
scalar barabasi_100nodes_network.content_distribution 	repo-62_price 	0
scalar barabasi_100nodes_network.content_distribution 	repo-63_card 	0
scalar barabasi_100nodes_network.content_distribution 	repo-63_price 	0
scalar barabasi_100nodes_network.content_distribution 	repo-64_card 	0
scalar barabasi_100nodes_network.content_distribution 	repo-64_price 	0
scalar barabasi_100nodes_network.content_distribution 	repo-65_card 	0
scalar barabasi_100nodes_network.content_distribution 	repo-65_price 	0
scalar barabasi_100nodes_network.content_distribution 	repo-66_card 	0
scalar barabasi_100nodes_network.content_distribution 	repo-66_price 	0
scalar barabasi_100nodes_network.content_distribution 	repo-67_card 	0
scalar barabasi_100nodes_network.content_distribution 	repo-67_price 	0
scalar barabasi_100nodes_network.content_distribution 	repo-68_card 	0
scalar barabasi_100nodes_network.content_distribution 	repo-68_price 	0
scalar barabasi_100nodes_network.content_distribution 	repo-69_card 	0
scalar barabasi_100nodes_network.content_distribution 	repo-69_price 	0
scalar barabasi_100nodes_network.content_distribution 	repo-70_card 	0
scalar barabasi_100nodes_network.content_distribution 	repo-70_price 	0
scalar barabasi_100nodes_network.content_distribution 	repo-71_card 	0
scalar barabasi_100nodes_network.content_distribution 	repo-71_price 	0
scalar barabasi_100nodes_network.content_distribution 	repo-72_card 	0
scalar barabasi_100nodes_network.content_distribution 	repo-72_price 	0
scalar barabasi_100nodes_network.content_distribution 	repo-73_card 	0
scalar barabasi_100nodes_network.content_distribution 	repo-73_price 	0
scalar barabasi_100nodes_network.content_distribution 	repo-74_card 	0
scalar barabasi_100nodes_network.content_distribution 	repo-74_price 	0
scalar barabasi_100nodes_network.content_distribution 	repo-75_card 	0
scalar barabasi_100nodes_network.content_distribution 	repo-75_price 	0
scalar barabasi_100nodes_network.content_distribution 	repo-76_card 	0
scalar barabasi_100nodes_network.content_distribution 	repo-76_price 	0
scalar barabasi_100nodes_network.content_distribution 	repo-77_card 	0
scalar barabasi_100nodes_network.content_distribution 	repo-77_price 	0
scalar barabasi_100nodes_network.content_distribution 	repo-78_card 	0
scalar barabasi_100nodes_network.content_distribution 	repo-78_price 	0
scalar barabasi_100nodes_network.content_distribution 	repo-79_card 	0
scalar barabasi_100nodes_network.content_distribution 	repo-79_price 	0
scalar barabasi_100nodes_network.content_distribution 	repo-80_card 	0
scalar barabasi_100nodes_network.content_distribution 	repo-80_price 	0
scalar barabasi_100nodes_network.content_distribution 	repo-81_card 	0
scalar barabasi_100nodes_network.content_distribution 	repo-81_price 	0
scalar barabasi_100nodes_network.content_distribution 	repo-82_card 	0
scalar barabasi_100nodes_network.content_distribution 	repo-82_price 	0
scalar barabasi_100nodes_network.content_distribution 	repo-83_card 	0
scalar barabasi_100nodes_network.content_distribution 	repo-83_price 	0
scalar barabasi_100nodes_network.content_distribution 	repo-84_card 	0
scalar barabasi_100nodes_network.content_distribution 	repo-84_price 	0
scalar barabasi_100nodes_network.content_distribution 	repo-85_card 	0
scalar barabasi_100nodes_network.content_distribution 	repo-85_price 	0
scalar barabasi_100nodes_network.content_distribution 	repo-86_card 	0
scalar barabasi_100nodes_network.content_distribution 	repo-86_price 	0
scalar barabasi_100nodes_network.content_distribution 	repo-87_card 	0
scalar barabasi_100nodes_network.content_distribution 	repo-87_price 	0
scalar barabasi_100nodes_network.content_distribution 	repo-88_card 	0
scalar barabasi_100nodes_network.content_distribution 	repo-88_price 	0
scalar barabasi_100nodes_network.content_distribution 	repo-89_card 	0
scalar barabasi_100nodes_network.content_distribution 	repo-89_price 	0
scalar barabasi_100nodes_network.content_distribution 	repo-90_card 	0
scalar barabasi_100nodes_network.content_distribution 	repo-90_price 	0
scalar barabasi_100nodes_network.content_distribution 	repo-91_card 	0
scalar barabasi_100nodes_network.content_distribution 	repo-91_price 	0
scalar barabasi_100nodes_network.content_distribution 	repo-92_card 	0
scalar barabasi_100nodes_network.content_distribution 	repo-92_price 	0
scalar barabasi_100nodes_network.content_distribution 	repo-93_card 	0
scalar barabasi_100nodes_network.content_distribution 	repo-93_price 	0
scalar barabasi_100nodes_network.content_distribution 	repo-94_card 	0
scalar barabasi_100nodes_network.content_distribution 	repo-94_price 	0
scalar barabasi_100nodes_network.content_distribution 	repo-95_card 	0
scalar barabasi_100nodes_network.content_distribution 	repo-95_price 	0
scalar barabasi_100nodes_network.content_distribution 	repo-96_card 	0
scalar barabasi_100nodes_network.content_distribution 	repo-96_price 	0
scalar barabasi_100nodes_network.content_distribution 	repo-97_card 	0
scalar barabasi_100nodes_network.content_distribution 	repo-97_price 	0
scalar barabasi_100nodes_network.content_distribution 	repo-98_card 	0
scalar barabasi_100nodes_network.content_distribution 	repo-98_price 	0
scalar barabasi_100nodes_network.content_distribution 	repo-99_card 	0
scalar barabasi_100nodes_network.content_distribution 	repo-99_price 	0
scalar barabasi_100nodes_network.statistics 	stabilization_time 	352.4
scalar barabasi_100nodes_network.statistics 	p_hit 	0.25186301664603
scalar barabasi_100nodes_network.statistics 	interests 	443391.1
scalar barabasi_100nodes_network.statistics 	data 	263445.96
scalar barabasi_100nodes_network.statistics 	hdistance 	1.8433436382865
scalar barabasi_100nodes_network.statistics 	avg_time 	0
scalar barabasi_100nodes_network.statistics 	downloads 	17994514
scalar barabasi_100nodes_network.statistics 	total_cost 	0
scalar barabasi_100nodes_network.statistics 	total_replicas 	1000000
scalar barabasi_100nodes_network.statistics 	"representations_downloaded 1:" 	0
scalar barabasi_100nodes_network.statistics 	"slots_per_representation 100:" 	0
scalar barabasi_100nodes_network.statistics 	inner_hit 	0.62059925597324
scalar barabasi_100nodes_network.statistics 	execution_time 	1069
scalar barabasi_100nodes_network.node[0].core_layer 	interests[0] 	5513703
scalar barabasi_100nodes_network.node[0].core_layer 	data[0] 	5155642
scalar barabasi_100nodes_network.node[0].core_layer 	slots_sent[face$o[1]->client[0]] 	18016500
scalar barabasi_100nodes_network.node[0].core_layer 	slots_sent[face$o[2]->node[1]] 	8083700
scalar barabasi_100nodes_network.node[0].core_layer 	slots_sent[face$o[3]->node[2]] 	367135000
scalar barabasi_100nodes_network.node[0].core_layer 	slots_sent[face$o[4]->node[5]] 	25689600
scalar barabasi_100nodes_network.node[0].core_layer 	slots_sent[face$o[5]->node[10]] 	15675500
scalar barabasi_100nodes_network.node[0].core_layer 	slots_sent[face$o[6]->node[11]] 	8135800
scalar barabasi_100nodes_network.node[0].core_layer 	slots_sent[face$o[7]->node[15]] 	14661800
scalar barabasi_100nodes_network.node[0].core_layer 	slots_sent[face$o[8]->node[21]] 	18974800
scalar barabasi_100nodes_network.node[0].core_layer 	slots_sent[face$o[9]->node[22]] 	5709600
scalar barabasi_100nodes_network.node[0].core_layer 	slots_sent[face$o[10]->node[28]] 	5707900
scalar barabasi_100nodes_network.node[0].core_layer 	slots_sent[face$o[11]->node[37]] 	8079500
scalar barabasi_100nodes_network.node[0].core_layer 	slots_sent[face$o[12]->node[44]] 	8110800
scalar barabasi_100nodes_network.node[0].core_layer 	slots_sent[face$o[13]->node[58]] 	15636100
scalar barabasi_100nodes_network.node[0].core_layer 	slots_sent[face$o[14]->node[73]] 	15614600
scalar barabasi_100nodes_network.node[0].core_layer 	slots_sent[face$o[15]->node[74]] 	8110100
scalar barabasi_100nodes_network.node[0].core_layer 	slots_sent[face$o[16]->node[93]] 	8029000
scalar barabasi_100nodes_network.node[0].content_store 	p_hit[0] 	0.064940204432484
scalar barabasi_100nodes_network.node[0].content_store 	hits[0] 	358061
scalar barabasi_100nodes_network.node[0].content_store 	misses[0] 	5155642
scalar barabasi_100nodes_network.node[0].content_store 	decision_yes[0] 	5155642
scalar barabasi_100nodes_network.node[0].content_store 	decision_no[0] 	0
scalar barabasi_100nodes_network.node[0].content_store 	decision_ratio[0] 	1
scalar barabasi_100nodes_network.node[1].core_layer 	interests[1] 	179581
scalar barabasi_100nodes_network.node[1].core_layer 	data[1] 	80837
scalar barabasi_100nodes_network.node[1].core_layer 	slots_sent[face$o[1]->client[1]] 	17958100
scalar barabasi_100nodes_network.node[1].core_layer 	slots_sent[face$o[2]->node[0]] 	0
scalar barabasi_100nodes_network.node[1].content_store 	p_hit[1] 	0.5498577243695
scalar barabasi_100nodes_network.node[1].content_store 	hits[1] 	98744
scalar barabasi_100nodes_network.node[1].content_store 	misses[1] 	80837
scalar barabasi_100nodes_network.node[1].content_store 	decision_yes[1] 	80837
scalar barabasi_100nodes_network.node[1].content_store 	decision_no[1] 	0
scalar barabasi_100nodes_network.node[1].content_store 	decision_ratio[1] 	1
scalar barabasi_100nodes_network.node[2].core_layer 	interests[2] 	5691698
scalar barabasi_100nodes_network.node[2].core_layer 	data[2] 	5119206
scalar barabasi_100nodes_network.node[2].core_layer 	slots_sent[face$o[1]->client[2]] 	17981100
scalar barabasi_100nodes_network.node[2].core_layer 	slots_sent[face$o[2]->node[0]] 	47734100
scalar barabasi_100nodes_network.node[2].core_layer 	slots_sent[face$o[3]->node[3]] 	15642800
scalar barabasi_100nodes_network.node[2].core_layer 	slots_sent[face$o[4]->node[4]] 	40538500
scalar barabasi_100nodes_network.node[2].core_layer 	slots_sent[face$o[5]->node[6]] 	8105200
scalar barabasi_100nodes_network.node[2].core_layer 	slots_sent[face$o[6]->node[7]] 	95985100
scalar barabasi_100nodes_network.node[2].core_layer 	slots_sent[face$o[7]->node[8]] 	58992700
scalar barabasi_100nodes_network.node[2].core_layer 	slots_sent[face$o[8]->node[13]] 	35372600
scalar barabasi_100nodes_network.node[2].core_layer 	slots_sent[face$o[9]->node[16]] 	51536500
scalar barabasi_100nodes_network.node[2].core_layer 	slots_sent[face$o[10]->node[18]] 	21838000
scalar barabasi_100nodes_network.node[2].core_layer 	slots_sent[face$o[11]->node[25]] 	15626300
scalar barabasi_100nodes_network.node[2].core_layer 	slots_sent[face$o[12]->node[26]] 	21857200
scalar barabasi_100nodes_network.node[2].core_layer 	slots_sent[face$o[13]->node[29]] 	8121500
scalar barabasi_100nodes_network.node[2].core_layer 	slots_sent[face$o[14]->node[32]] 	13438200
scalar barabasi_100nodes_network.node[2].core_layer 	slots_sent[face$o[15]->node[33]] 	8110000
scalar barabasi_100nodes_network.node[2].core_layer 	slots_sent[face$o[16]->node[34]] 	8089700
scalar barabasi_100nodes_network.node[2].core_layer 	slots_sent[face$o[17]->node[36]] 	15668700
scalar barabasi_100nodes_network.node[2].core_layer 	slots_sent[face$o[18]->node[41]] 	37314800
scalar barabasi_100nodes_network.node[2].core_layer 	slots_sent[face$o[19]->node[45]] 	8051800
scalar barabasi_100nodes_network.node[2].core_layer 	slots_sent[face$o[20]->node[59]] 	8109800
scalar barabasi_100nodes_network.node[2].core_layer 	slots_sent[face$o[21]->node[62]] 	22995700
scalar barabasi_100nodes_network.node[2].core_layer 	slots_sent[face$o[22]->node[79]] 	8059500
scalar barabasi_100nodes_network.node[2].content_store 	p_hit[2] 	0.1005836922479
scalar barabasi_100nodes_network.node[2].content_store 	hits[2] 	572492
scalar barabasi_100nodes_network.node[2].content_store 	misses[2] 	5119206
scalar barabasi_100nodes_network.node[2].content_store 	decision_yes[2] 	5119206
scalar barabasi_100nodes_network.node[2].content_store 	decision_no[2] 	0
scalar barabasi_100nodes_network.node[2].content_store 	decision_ratio[2] 	1
scalar barabasi_100nodes_network.node[3].core_layer 	interests[3] 	260746
scalar barabasi_100nodes_network.node[3].core_layer 	data[3] 	156428
scalar barabasi_100nodes_network.node[3].core_layer 	slots_sent[face$o[1]->client[3]] 	17994300
scalar barabasi_100nodes_network.node[3].core_layer 	slots_sent[face$o[2]->node[2]] 	0
scalar barabasi_100nodes_network.node[3].core_layer 	slots_sent[face$o[3]->node[52]] 	8080300
scalar barabasi_100nodes_network.node[3].content_store 	p_hit[3] 	0.40007516893835
scalar barabasi_100nodes_network.node[3].content_store 	hits[3] 	104318
scalar barabasi_100nodes_network.node[3].content_store 	misses[3] 	156428
scalar barabasi_100nodes_network.node[3].content_store 	decision_yes[3] 	156428
scalar barabasi_100nodes_network.node[3].content_store 	decision_no[3] 	0
scalar barabasi_100nodes_network.node[3].content_store 	decision_ratio[3] 	1
scalar barabasi_100nodes_network.node[4].core_layer 	interests[4] 	529810
scalar barabasi_100nodes_network.node[4].core_layer 	data[4] 	405385
scalar barabasi_100nodes_network.node[4].core_layer 	slots_sent[face$o[1]->client[4]] 	17953200
scalar barabasi_100nodes_network.node[4].core_layer 	slots_sent[face$o[2]->node[2]] 	0
scalar barabasi_100nodes_network.node[4].core_layer 	slots_sent[face$o[3]->node[27]] 	11202200
scalar barabasi_100nodes_network.node[4].core_layer 	slots_sent[face$o[4]->node[30]] 	15753700
scalar barabasi_100nodes_network.node[4].core_layer 	slots_sent[face$o[5]->node[85]] 	8071900
scalar barabasi_100nodes_network.node[4].content_store 	p_hit[4] 	0.2348483418584
scalar barabasi_100nodes_network.node[4].content_store 	hits[4] 	124425
scalar barabasi_100nodes_network.node[4].content_store 	misses[4] 	405385
scalar barabasi_100nodes_network.node[4].content_store 	decision_yes[4] 	405385
scalar barabasi_100nodes_network.node[4].content_store 	decision_no[4] 	0
scalar barabasi_100nodes_network.node[4].content_store 	decision_ratio[4] 	1
scalar barabasi_100nodes_network.node[5].core_layer 	interests[5] 	1914915
scalar barabasi_100nodes_network.node[5].core_layer 	data[5] 	1614630
scalar barabasi_100nodes_network.node[5].core_layer 	slots_sent[face$o[1]->client[5]] 	17962200
scalar barabasi_100nodes_network.node[5].core_layer 	slots_sent[face$o[2]->node[0]] 	152079100
scalar barabasi_100nodes_network.node[5].core_layer 	slots_sent[face$o[3]->node[9]] 	5791900
scalar barabasi_100nodes_network.node[5].core_layer 	slots_sent[face$o[4]->node[35]] 	15658300
scalar barabasi_100nodes_network.node[5].content_store 	p_hit[5] 	0.15681374891314
scalar barabasi_100nodes_network.node[5].content_store 	hits[5] 	300285
scalar barabasi_100nodes_network.node[5].content_store 	misses[5] 	1614630
scalar barabasi_100nodes_network.node[5].content_store 	decision_yes[5] 	1614630
scalar barabasi_100nodes_network.node[5].content_store 	decision_no[5] 	0
scalar barabasi_100nodes_network.node[5].content_store 	decision_ratio[5] 	1
scalar barabasi_100nodes_network.node[6].core_layer 	interests[6] 	179830
scalar barabasi_100nodes_network.node[6].core_layer 	data[6] 	81052
scalar barabasi_100nodes_network.node[6].core_layer 	slots_sent[face$o[1]->client[6]] 	17983000
scalar barabasi_100nodes_network.node[6].core_layer 	slots_sent[face$o[2]->node[2]] 	0
scalar barabasi_100nodes_network.node[6].content_store 	p_hit[6] 	0.54928543624534
scalar barabasi_100nodes_network.node[6].content_store 	hits[6] 	98778
scalar barabasi_100nodes_network.node[6].content_store 	misses[6] 	81052
scalar barabasi_100nodes_network.node[6].content_store 	decision_yes[6] 	81052
scalar barabasi_100nodes_network.node[6].content_store 	decision_no[6] 	0
scalar barabasi_100nodes_network.node[6].content_store 	decision_ratio[6] 	1
scalar barabasi_100nodes_network.node[7].core_layer 	interests[7] 	1119001
scalar barabasi_100nodes_network.node[7].core_layer 	data[7] 	959851
scalar barabasi_100nodes_network.node[7].core_layer 	slots_sent[face$o[1]->client[7]] 	18060700
scalar barabasi_100nodes_network.node[7].core_layer 	slots_sent[face$o[2]->node[2]] 	0
scalar barabasi_100nodes_network.node[7].core_layer 	slots_sent[face$o[3]->node[23]] 	49749100
scalar barabasi_100nodes_network.node[7].core_layer 	slots_sent[face$o[4]->node[31]] 	30309700
scalar barabasi_100nodes_network.node[7].core_layer 	slots_sent[face$o[5]->node[49]] 	8069900
scalar barabasi_100nodes_network.node[7].core_layer 	slots_sent[face$o[6]->node[90]] 	5710700
scalar barabasi_100nodes_network.node[7].content_store 	p_hit[7] 	0.14222507397223
scalar barabasi_100nodes_network.node[7].content_store 	hits[7] 	159150
scalar barabasi_100nodes_network.node[7].content_store 	misses[7] 	959851
scalar barabasi_100nodes_network.node[7].content_store 	decision_yes[7] 	959851
scalar barabasi_100nodes_network.node[7].content_store 	decision_no[7] 	0
scalar barabasi_100nodes_network.node[7].content_store 	decision_ratio[7] 	1
scalar barabasi_100nodes_network.node[8].core_layer 	interests[8] 	742019
scalar barabasi_100nodes_network.node[8].core_layer 	data[8] 	589927
scalar barabasi_100nodes_network.node[8].core_layer 	slots_sent[face$o[1]->client[8]] 	18014000
scalar barabasi_100nodes_network.node[8].core_layer 	slots_sent[face$o[2]->node[2]] 	0
scalar barabasi_100nodes_network.node[8].core_layer 	slots_sent[face$o[3]->node[12]] 	8076700
scalar barabasi_100nodes_network.node[8].core_layer 	slots_sent[face$o[4]->node[14]] 	8072300
scalar barabasi_100nodes_network.node[8].core_layer 	slots_sent[face$o[5]->node[17]] 	8124300
scalar barabasi_100nodes_network.node[8].core_layer 	slots_sent[face$o[6]->node[39]] 	15676700
scalar barabasi_100nodes_network.node[8].core_layer 	slots_sent[face$o[7]->node[61]] 	8127900
scalar barabasi_100nodes_network.node[8].core_layer 	slots_sent[face$o[8]->node[66]] 	8110000
scalar barabasi_100nodes_network.node[8].content_store 	p_hit[8] 	0.20497049266933
scalar barabasi_100nodes_network.node[8].content_store 	hits[8] 	152092
scalar barabasi_100nodes_network.node[8].content_store 	misses[8] 	589927
scalar barabasi_100nodes_network.node[8].content_store 	decision_yes[8] 	589927
scalar barabasi_100nodes_network.node[8].content_store 	decision_no[8] 	0
scalar barabasi_100nodes_network.node[8].content_store 	decision_ratio[8] 	1
scalar barabasi_100nodes_network.node[9].core_layer 	interests[9] 	1538126
scalar barabasi_100nodes_network.node[9].core_layer 	repo_load[9] 	1396111
scalar barabasi_100nodes_network.node[9].core_layer 	data[9] 	57919
scalar barabasi_100nodes_network.node[9].core_layer 	slots_sent[face$o[1]->client[9]] 	18039200
scalar barabasi_100nodes_network.node[9].core_layer 	slots_sent[face$o[2]->node[5]] 	135773400
scalar barabasi_100nodes_network.node[9].content_store 	p_hit[9] 	0.054674324470167
scalar barabasi_100nodes_network.node[9].content_store 	hits[9] 	84096
scalar barabasi_100nodes_network.node[9].content_store 	misses[9] 	1454030
scalar barabasi_100nodes_network.node[9].content_store 	decision_yes[9] 	57919
scalar barabasi_100nodes_network.node[9].content_store 	decision_no[9] 	1396111
scalar barabasi_100nodes_network.node[9].content_store 	decision_ratio[9] 	0.039833428471214
scalar barabasi_100nodes_network.node[10].core_layer 	interests[10] 	260989
scalar barabasi_100nodes_network.node[10].core_layer 	data[10] 	156755
scalar barabasi_100nodes_network.node[10].core_layer 	slots_sent[face$o[1]->client[10]] 	17992300
scalar barabasi_100nodes_network.node[10].core_layer 	slots_sent[face$o[2]->node[0]] 	0
scalar barabasi_100nodes_network.node[10].core_layer 	slots_sent[face$o[3]->node[71]] 	8106600
scalar barabasi_100nodes_network.node[10].content_store 	p_hit[10] 	0.39938081681603
scalar barabasi_100nodes_network.node[10].content_store 	hits[10] 	104234
scalar barabasi_100nodes_network.node[10].content_store 	misses[10] 	156755
scalar barabasi_100nodes_network.node[10].content_store 	decision_yes[10] 	156755
scalar barabasi_100nodes_network.node[10].content_store 	decision_no[10] 	0
scalar barabasi_100nodes_network.node[10].content_store 	decision_ratio[10] 	1
scalar barabasi_100nodes_network.node[11].core_layer 	interests[11] 	180444
scalar barabasi_100nodes_network.node[11].core_layer 	data[11] 	81358
scalar barabasi_100nodes_network.node[11].core_layer 	slots_sent[face$o[1]->client[11]] 	18044400
scalar barabasi_100nodes_network.node[11].core_layer 	slots_sent[face$o[2]->node[0]] 	0
scalar barabasi_100nodes_network.node[11].content_store 	p_hit[11] 	0.54912327370264
scalar barabasi_100nodes_network.node[11].content_store 	hits[11] 	99086
scalar barabasi_100nodes_network.node[11].content_store 	misses[11] 	81358
scalar barabasi_100nodes_network.node[11].content_store 	decision_yes[11] 	81358
scalar barabasi_100nodes_network.node[11].content_store 	decision_no[11] 	0
scalar barabasi_100nodes_network.node[11].content_store 	decision_ratio[11] 	1
scalar barabasi_100nodes_network.node[12].core_layer 	interests[12] 	179875
scalar barabasi_100nodes_network.node[12].core_layer 	data[12] 	80767
scalar barabasi_100nodes_network.node[12].core_layer 	slots_sent[face$o[1]->client[12]] 	17987500
scalar barabasi_100nodes_network.node[12].core_layer 	slots_sent[face$o[2]->node[8]] 	0
scalar barabasi_100nodes_network.node[12].content_store 	p_hit[12] 	0.55098262682418
scalar barabasi_100nodes_network.node[12].content_store 	hits[12] 	99108
scalar barabasi_100nodes_network.node[12].content_store 	misses[12] 	80767
scalar barabasi_100nodes_network.node[12].content_store 	decision_yes[12] 	80767
scalar barabasi_100nodes_network.node[12].content_store 	decision_no[12] 	0
scalar barabasi_100nodes_network.node[12].content_store 	decision_ratio[12] 	1
scalar barabasi_100nodes_network.node[13].core_layer 	interests[13] 	470861
scalar barabasi_100nodes_network.node[13].core_layer 	data[13] 	353726
scalar barabasi_100nodes_network.node[13].core_layer 	slots_sent[face$o[1]->client[13]] 	17988600
scalar barabasi_100nodes_network.node[13].core_layer 	slots_sent[face$o[2]->node[2]] 	0
scalar barabasi_100nodes_network.node[13].core_layer 	slots_sent[face$o[3]->node[67]] 	8080800
scalar barabasi_100nodes_network.node[13].core_layer 	slots_sent[face$o[4]->node[78]] 	21016700
scalar barabasi_100nodes_network.node[13].content_store 	p_hit[13] 	0.24876768303172
scalar barabasi_100nodes_network.node[13].content_store 	hits[13] 	117135
scalar barabasi_100nodes_network.node[13].content_store 	misses[13] 	353726
scalar barabasi_100nodes_network.node[13].content_store 	decision_yes[13] 	353726
scalar barabasi_100nodes_network.node[13].content_store 	decision_no[13] 	0
scalar barabasi_100nodes_network.node[13].content_store 	decision_ratio[13] 	1
scalar barabasi_100nodes_network.node[14].core_layer 	interests[14] 	179557
scalar barabasi_100nodes_network.node[14].core_layer 	data[14] 	80723
scalar barabasi_100nodes_network.node[14].core_layer 	slots_sent[face$o[1]->client[14]] 	17955700
scalar barabasi_100nodes_network.node[14].core_layer 	slots_sent[face$o[2]->node[8]] 	0
scalar barabasi_100nodes_network.node[14].content_store 	p_hit[14] 	0.55043245320427
scalar barabasi_100nodes_network.node[14].content_store 	hits[14] 	98834
scalar barabasi_100nodes_network.node[14].content_store 	misses[14] 	80723
scalar barabasi_100nodes_network.node[14].content_store 	decision_yes[14] 	80723
scalar barabasi_100nodes_network.node[14].content_store 	decision_no[14] 	0
scalar barabasi_100nodes_network.node[14].content_store 	decision_ratio[14] 	1
scalar barabasi_100nodes_network.node[15].core_layer 	interests[15] 	1844828
scalar barabasi_100nodes_network.node[15].core_layer 	repo_load[15] 	1620550
scalar barabasi_100nodes_network.node[15].core_layer 	data[15] 	146618
scalar barabasi_100nodes_network.node[15].core_layer 	slots_sent[face$o[1]->client[15]] 	18002100
scalar barabasi_100nodes_network.node[15].core_layer 	slots_sent[face$o[2]->node[0]] 	152604900
scalar barabasi_100nodes_network.node[15].core_layer 	slots_sent[face$o[3]->node[40]] 	8073400
scalar barabasi_100nodes_network.node[15].core_layer 	slots_sent[face$o[4]->node[56]] 	5802400
scalar barabasi_100nodes_network.node[15].content_store 	p_hit[15] 	0.042096065324247
scalar barabasi_100nodes_network.node[15].content_store 	hits[15] 	77660
scalar barabasi_100nodes_network.node[15].content_store 	misses[15] 	1767168
scalar barabasi_100nodes_network.node[15].content_store 	decision_yes[15] 	146618
scalar barabasi_100nodes_network.node[15].content_store 	decision_no[15] 	1620550
scalar barabasi_100nodes_network.node[15].content_store 	decision_ratio[15] 	0.082967776691294
scalar barabasi_100nodes_network.node[16].core_layer 	interests[16] 	635286
scalar barabasi_100nodes_network.node[16].core_layer 	data[16] 	515365
scalar barabasi_100nodes_network.node[16].core_layer 	slots_sent[face$o[1]->client[16]] 	17970000
scalar barabasi_100nodes_network.node[16].core_layer 	slots_sent[face$o[2]->node[2]] 	0
scalar barabasi_100nodes_network.node[16].core_layer 	slots_sent[face$o[3]->node[19]] 	37483700
scalar barabasi_100nodes_network.node[16].core_layer 	slots_sent[face$o[4]->node[20]] 	8074900
scalar barabasi_100nodes_network.node[16].content_store 	p_hit[16] 	0.18876694905916
scalar barabasi_100nodes_network.node[16].content_store 	hits[16] 	119921
scalar barabasi_100nodes_network.node[16].content_store 	misses[16] 	515365
scalar barabasi_100nodes_network.node[16].content_store 	decision_yes[16] 	515365
scalar barabasi_100nodes_network.node[16].content_store 	decision_no[16] 	0
scalar barabasi_100nodes_network.node[16].content_store 	decision_ratio[16] 	1
scalar barabasi_100nodes_network.node[17].core_layer 	interests[17] 	180474
scalar barabasi_100nodes_network.node[17].core_layer 	data[17] 	81243
scalar barabasi_100nodes_network.node[17].core_layer 	slots_sent[face$o[1]->client[17]] 	18047400
scalar barabasi_100nodes_network.node[17].core_layer 	slots_sent[face$o[2]->node[8]] 	0
scalar barabasi_100nodes_network.node[17].content_store 	p_hit[17] 	0.54983543335882
scalar barabasi_100nodes_network.node[17].content_store 	hits[17] 	99231
scalar barabasi_100nodes_network.node[17].content_store 	misses[17] 	81243
scalar barabasi_100nodes_network.node[17].content_store 	decision_yes[17] 	81243
scalar barabasi_100nodes_network.node[17].content_store 	decision_no[17] 	0
scalar barabasi_100nodes_network.node[17].content_store 	decision_ratio[17] 	1
scalar barabasi_100nodes_network.node[18].core_layer 	interests[18] 	423191
scalar barabasi_100nodes_network.node[18].core_layer 	repo_load[18] 	101411
scalar barabasi_100nodes_network.node[18].core_layer 	data[18] 	218380
scalar barabasi_100nodes_network.node[18].core_layer 	slots_sent[face$o[1]->client[18]] 	18002600
scalar barabasi_100nodes_network.node[18].core_layer 	slots_sent[face$o[2]->node[2]] 	0
scalar barabasi_100nodes_network.node[18].core_layer 	slots_sent[face$o[3]->node[53]] 	8077400
scalar barabasi_100nodes_network.node[18].core_layer 	slots_sent[face$o[4]->node[68]] 	8108400
scalar barabasi_100nodes_network.node[18].core_layer 	slots_sent[face$o[5]->node[72]] 	8130700
scalar barabasi_100nodes_network.node[18].content_store 	p_hit[18] 	0.24433411863674
scalar barabasi_100nodes_network.node[18].content_store 	hits[18] 	103400
scalar barabasi_100nodes_network.node[18].content_store 	misses[18] 	319791
scalar barabasi_100nodes_network.node[18].content_store 	decision_yes[18] 	218380
scalar barabasi_100nodes_network.node[18].content_store 	decision_no[18] 	101411
scalar barabasi_100nodes_network.node[18].content_store 	decision_ratio[18] 	0.68288350829135
scalar barabasi_100nodes_network.node[19].core_layer 	interests[19] 	504400
scalar barabasi_100nodes_network.node[19].core_layer 	data[19] 	374837
scalar barabasi_100nodes_network.node[19].core_layer 	slots_sent[face$o[1]->client[19]] 	18023500
scalar barabasi_100nodes_network.node[19].core_layer 	slots_sent[face$o[2]->node[16]] 	0
scalar barabasi_100nodes_network.node[19].core_layer 	slots_sent[face$o[3]->node[63]] 	8081700
scalar barabasi_100nodes_network.node[19].core_layer 	slots_sent[face$o[4]->node[70]] 	8091900
scalar barabasi_100nodes_network.node[19].core_layer 	slots_sent[face$o[5]->node[80]] 	8105900
scalar barabasi_100nodes_network.node[19].core_layer 	slots_sent[face$o[6]->node[89]] 	8137000
scalar barabasi_100nodes_network.node[19].content_store 	p_hit[19] 	0.25686558287074
scalar barabasi_100nodes_network.node[19].content_store 	hits[19] 	129563
scalar barabasi_100nodes_network.node[19].content_store 	misses[19] 	374837
scalar barabasi_100nodes_network.node[19].content_store 	decision_yes[19] 	374837
scalar barabasi_100nodes_network.node[19].content_store 	decision_no[19] 	0
scalar barabasi_100nodes_network.node[19].content_store 	decision_ratio[19] 	1
scalar barabasi_100nodes_network.node[20].core_layer 	interests[20] 	179768
scalar barabasi_100nodes_network.node[20].core_layer 	data[20] 	80749
scalar barabasi_100nodes_network.node[20].core_layer 	slots_sent[face$o[1]->client[20]] 	17976800
scalar barabasi_100nodes_network.node[20].core_layer 	slots_sent[face$o[2]->node[16]] 	0
scalar barabasi_100nodes_network.node[20].content_store 	p_hit[20] 	0.55081549552757
scalar barabasi_100nodes_network.node[20].content_store 	hits[20] 	99019
scalar barabasi_100nodes_network.node[20].content_store 	misses[20] 	80749
scalar barabasi_100nodes_network.node[20].content_store 	decision_yes[20] 	80749
scalar barabasi_100nodes_network.node[20].content_store 	decision_no[20] 	0
scalar barabasi_100nodes_network.node[20].content_store 	decision_ratio[20] 	1
scalar barabasi_100nodes_network.node[21].core_layer 	interests[21] 	295589
scalar barabasi_100nodes_network.node[21].core_layer 	data[21] 	189748
scalar barabasi_100nodes_network.node[21].core_layer 	slots_sent[face$o[1]->client[21]] 	18100600
scalar barabasi_100nodes_network.node[21].core_layer 	slots_sent[face$o[2]->node[0]] 	0
scalar barabasi_100nodes_network.node[21].core_layer 	slots_sent[face$o[3]->node[24]] 	5690100
scalar barabasi_100nodes_network.node[21].core_layer 	slots_sent[face$o[4]->node[57]] 	5768200
scalar barabasi_100nodes_network.node[21].content_store 	p_hit[21] 	0.35806812838096
scalar barabasi_100nodes_network.node[21].content_store 	hits[21] 	105841
scalar barabasi_100nodes_network.node[21].content_store 	misses[21] 	189748
scalar barabasi_100nodes_network.node[21].content_store 	decision_yes[21] 	189748
scalar barabasi_100nodes_network.node[21].content_store 	decision_no[21] 	0
scalar barabasi_100nodes_network.node[21].content_store 	decision_ratio[21] 	1
scalar barabasi_100nodes_network.node[22].core_layer 	interests[22] 	180291
scalar barabasi_100nodes_network.node[22].core_layer 	repo_load[22] 	47002
scalar barabasi_100nodes_network.node[22].core_layer 	data[22] 	57096
scalar barabasi_100nodes_network.node[22].core_layer 	slots_sent[face$o[1]->client[22]] 	18029100
scalar barabasi_100nodes_network.node[22].core_layer 	slots_sent[face$o[2]->node[0]] 	0
scalar barabasi_100nodes_network.node[22].content_store 	p_hit[22] 	0.42261122296731
scalar barabasi_100nodes_network.node[22].content_store 	hits[22] 	76193
scalar barabasi_100nodes_network.node[22].content_store 	misses[22] 	104098
scalar barabasi_100nodes_network.node[22].content_store 	decision_yes[22] 	57096
scalar barabasi_100nodes_network.node[22].content_store 	decision_no[22] 	47002
scalar barabasi_100nodes_network.node[22].content_store 	decision_ratio[22] 	0.54848316009914
scalar barabasi_100nodes_network.node[23].core_layer 	interests[23] 	636893
scalar barabasi_100nodes_network.node[23].core_layer 	data[23] 	497491
scalar barabasi_100nodes_network.node[23].core_layer 	slots_sent[face$o[1]->client[23]] 	17968800
scalar barabasi_100nodes_network.node[23].core_layer 	slots_sent[face$o[2]->node[7]] 	0
scalar barabasi_100nodes_network.node[23].core_layer 	slots_sent[face$o[3]->node[46]] 	15660400
scalar barabasi_100nodes_network.node[23].core_layer 	slots_sent[face$o[4]->node[47]] 	5743400
scalar barabasi_100nodes_network.node[23].core_layer 	slots_sent[face$o[5]->node[51]] 	8121100
scalar barabasi_100nodes_network.node[23].core_layer 	slots_sent[face$o[6]->node[83]] 	8092900
scalar barabasi_100nodes_network.node[23].core_layer 	slots_sent[face$o[7]->node[86]] 	8102700
scalar barabasi_100nodes_network.node[23].content_store 	p_hit[23] 	0.21887821031162
scalar barabasi_100nodes_network.node[23].content_store 	hits[23] 	139402
scalar barabasi_100nodes_network.node[23].content_store 	misses[23] 	497491
scalar barabasi_100nodes_network.node[23].content_store 	decision_yes[23] 	497491
scalar barabasi_100nodes_network.node[23].content_store 	decision_no[23] 	0
scalar barabasi_100nodes_network.node[23].content_store 	decision_ratio[23] 	1
scalar barabasi_100nodes_network.node[24].core_layer 	interests[24] 	179258
scalar barabasi_100nodes_network.node[24].core_layer 	repo_load[24] 	46642
scalar barabasi_100nodes_network.node[24].core_layer 	data[24] 	56901
scalar barabasi_100nodes_network.node[24].core_layer 	slots_sent[face$o[1]->client[24]] 	17925800
scalar barabasi_100nodes_network.node[24].core_layer 	slots_sent[face$o[2]->node[21]] 	0
scalar barabasi_100nodes_network.node[24].content_store 	p_hit[24] 	0.42238003324817
scalar barabasi_100nodes_network.node[24].content_store 	hits[24] 	75715
scalar barabasi_100nodes_network.node[24].content_store 	misses[24] 	103543
scalar barabasi_100nodes_network.node[24].content_store 	decision_yes[24] 	56901
scalar barabasi_100nodes_network.node[24].content_store 	decision_no[24] 	46642
scalar barabasi_100nodes_network.node[24].content_store 	decision_ratio[24] 	0.54953980471881
scalar barabasi_100nodes_network.node[25].core_layer 	interests[25] 	260519
scalar barabasi_100nodes_network.node[25].core_layer 	data[25] 	156263
scalar barabasi_100nodes_network.node[25].core_layer 	slots_sent[face$o[1]->client[25]] 	17960100
scalar barabasi_100nodes_network.node[25].core_layer 	slots_sent[face$o[2]->node[2]] 	0
scalar barabasi_100nodes_network.node[25].core_layer 	slots_sent[face$o[3]->node[38]] 	8091800
scalar barabasi_100nodes_network.node[25].content_store 	p_hit[25] 	0.40018578299471
scalar barabasi_100nodes_network.node[25].content_store 	hits[25] 	104256
scalar barabasi_100nodes_network.node[25].content_store 	misses[25] 	156263
scalar barabasi_100nodes_network.node[25].content_store 	decision_yes[25] 	156263
scalar barabasi_100nodes_network.node[25].content_store 	decision_no[25] 	0
scalar barabasi_100nodes_network.node[25].content_store 	decision_ratio[25] 	1
scalar barabasi_100nodes_network.node[26].core_layer 	interests[26] 	416881
scalar barabasi_100nodes_network.node[26].core_layer 	repo_load[26] 	114134
scalar barabasi_100nodes_network.node[26].core_layer 	data[26] 	218572
scalar barabasi_100nodes_network.node[26].core_layer 	slots_sent[face$o[1]->client[26]] 	17973600
scalar barabasi_100nodes_network.node[26].core_layer 	slots_sent[face$o[2]->node[2]] 	0
scalar barabasi_100nodes_network.node[26].core_layer 	slots_sent[face$o[3]->node[77]] 	15645300
scalar barabasi_100nodes_network.node[26].core_layer 	slots_sent[face$o[4]->node[91]] 	8069200
scalar barabasi_100nodes_network.node[26].content_store 	p_hit[26] 	0.2019161343405
scalar barabasi_100nodes_network.node[26].content_store 	hits[26] 	84175
scalar barabasi_100nodes_network.node[26].content_store 	misses[26] 	332706
scalar barabasi_100nodes_network.node[26].content_store 	decision_yes[26] 	218572
scalar barabasi_100nodes_network.node[26].content_store 	decision_no[26] 	114134
scalar barabasi_100nodes_network.node[26].content_store 	decision_ratio[26] 	0.65695238438742
scalar barabasi_100nodes_network.node[27].core_layer 	interests[27] 	260057
scalar barabasi_100nodes_network.node[27].core_layer 	repo_load[27] 	74762
scalar barabasi_100nodes_network.node[27].core_layer 	data[27] 	112022
scalar barabasi_100nodes_network.node[27].core_layer 	slots_sent[face$o[1]->client[27]] 	17987600
scalar barabasi_100nodes_network.node[27].core_layer 	slots_sent[face$o[2]->node[4]] 	0
scalar barabasi_100nodes_network.node[27].core_layer 	slots_sent[face$o[3]->node[99]] 	8018100
scalar barabasi_100nodes_network.node[27].content_store 	p_hit[27] 	0.28175746086435
scalar barabasi_100nodes_network.node[27].content_store 	hits[27] 	73273
scalar barabasi_100nodes_network.node[27].content_store 	misses[27] 	186784
scalar barabasi_100nodes_network.node[27].content_store 	decision_yes[27] 	112022
scalar barabasi_100nodes_network.node[27].content_store 	decision_no[27] 	74762
scalar barabasi_100nodes_network.node[27].content_store 	decision_ratio[27] 	0.59974087716293
scalar barabasi_100nodes_network.node[28].core_layer 	interests[28] 	1811090
scalar barabasi_100nodes_network.node[28].core_layer 	repo_load[28] 	1677937
scalar barabasi_100nodes_network.node[28].core_layer 	data[28] 	57079
scalar barabasi_100nodes_network.node[28].core_layer 	slots_sent[face$o[1]->client[28]] 	17962900
scalar barabasi_100nodes_network.node[28].core_layer 	slots_sent[face$o[2]->node[0]] 	163146100
scalar barabasi_100nodes_network.node[28].content_store 	p_hit[28] 	0.042004538703212
scalar barabasi_100nodes_network.node[28].content_store 	hits[28] 	76074
scalar barabasi_100nodes_network.node[28].content_store 	misses[28] 	1735016
scalar barabasi_100nodes_network.node[28].content_store 	decision_yes[28] 	57079
scalar barabasi_100nodes_network.node[28].content_store 	decision_no[28] 	1677937
scalar barabasi_100nodes_network.node[28].content_store 	decision_ratio[28] 	0.032898255693319
scalar barabasi_100nodes_network.node[29].core_layer 	interests[29] 	180961
scalar barabasi_100nodes_network.node[29].core_layer 	data[29] 	81215
scalar barabasi_100nodes_network.node[29].core_layer 	slots_sent[face$o[1]->client[29]] 	18096100
scalar barabasi_100nodes_network.node[29].core_layer 	slots_sent[face$o[2]->node[2]] 	0
scalar barabasi_100nodes_network.node[29].content_store 	p_hit[29] 	0.5512016401324
scalar barabasi_100nodes_network.node[29].content_store 	hits[29] 	99746
scalar barabasi_100nodes_network.node[29].content_store 	misses[29] 	81215
scalar barabasi_100nodes_network.node[29].content_store 	decision_yes[29] 	81215
scalar barabasi_100nodes_network.node[29].content_store 	decision_no[29] 	0
scalar barabasi_100nodes_network.node[29].content_store 	decision_ratio[29] 	1
scalar barabasi_100nodes_network.node[30].core_layer 	interests[30] 	262306
scalar barabasi_100nodes_network.node[30].core_layer 	data[30] 	157537
scalar barabasi_100nodes_network.node[30].core_layer 	slots_sent[face$o[1]->client[30]] 	18101800
scalar barabasi_100nodes_network.node[30].core_layer 	slots_sent[face$o[2]->node[4]] 	0
scalar barabasi_100nodes_network.node[30].core_layer 	slots_sent[face$o[3]->node[88]] 	8128800
scalar barabasi_100nodes_network.node[30].content_store 	p_hit[30] 	0.39941518684285
scalar barabasi_100nodes_network.node[30].content_store 	hits[30] 	104769
scalar barabasi_100nodes_network.node[30].content_store 	misses[30] 	157537
scalar barabasi_100nodes_network.node[30].content_store 	decision_yes[30] 	157537
scalar barabasi_100nodes_network.node[30].content_store 	decision_no[30] 	0
scalar barabasi_100nodes_network.node[30].content_store 	decision_ratio[30] 	1
scalar barabasi_100nodes_network.node[31].core_layer 	interests[31] 	410131
scalar barabasi_100nodes_network.node[31].core_layer 	data[31] 	303097
scalar barabasi_100nodes_network.node[31].core_layer 	slots_sent[face$o[1]->client[31]] 	18016100
scalar barabasi_100nodes_network.node[31].core_layer 	slots_sent[face$o[2]->node[7]] 	0
scalar barabasi_100nodes_network.node[31].core_layer 	slots_sent[face$o[3]->node[65]] 	22997000
scalar barabasi_100nodes_network.node[31].content_store 	p_hit[31] 	0.26097515184173
scalar barabasi_100nodes_network.node[31].content_store 	hits[31] 	107034
scalar barabasi_100nodes_network.node[31].content_store 	misses[31] 	303097
scalar barabasi_100nodes_network.node[31].content_store 	decision_yes[31] 	303097
scalar barabasi_100nodes_network.node[31].content_store 	decision_no[31] 	0
scalar barabasi_100nodes_network.node[31].content_store 	decision_ratio[31] 	1
scalar barabasi_100nodes_network.node[32].core_layer 	interests[32] 	1767441
scalar barabasi_100nodes_network.node[32].core_layer 	repo_load[32] 	78006
scalar barabasi_100nodes_network.node[32].core_layer 	data[32] 	1386487
scalar barabasi_100nodes_network.node[32].core_layer 	slots_sent[face$o[1]->client[32]] 	18085600
scalar barabasi_100nodes_network.node[32].core_layer 	slots_sent[face$o[2]->node[2]] 	144785600
scalar barabasi_100nodes_network.node[32].core_layer 	slots_sent[face$o[3]->node[43]] 	8093600
scalar barabasi_100nodes_network.node[32].core_layer 	slots_sent[face$o[4]->node[64]] 	5779300
scalar barabasi_100nodes_network.node[32].content_store 	p_hit[32] 	0.17140487292079
scalar barabasi_100nodes_network.node[32].content_store 	hits[32] 	302948
scalar barabasi_100nodes_network.node[32].content_store 	misses[32] 	1464493
scalar barabasi_100nodes_network.node[32].content_store 	decision_yes[32] 	1386487
scalar barabasi_100nodes_network.node[32].content_store 	decision_no[32] 	78006
scalar barabasi_100nodes_network.node[32].content_store 	decision_ratio[32] 	0.94673514998023
scalar barabasi_100nodes_network.node[33].core_layer 	interests[33] 	179549
scalar barabasi_100nodes_network.node[33].core_layer 	data[33] 	81100
scalar barabasi_100nodes_network.node[33].core_layer 	slots_sent[face$o[1]->client[33]] 	17954900
scalar barabasi_100nodes_network.node[33].core_layer 	slots_sent[face$o[2]->node[2]] 	0
scalar barabasi_100nodes_network.node[33].content_store 	p_hit[33] 	0.54831271686281
scalar barabasi_100nodes_network.node[33].content_store 	hits[33] 	98449
scalar barabasi_100nodes_network.node[33].content_store 	misses[33] 	81100
scalar barabasi_100nodes_network.node[33].content_store 	decision_yes[33] 	81100
scalar barabasi_100nodes_network.node[33].content_store 	decision_no[33] 	0
scalar barabasi_100nodes_network.node[33].content_store 	decision_ratio[33] 	1
scalar barabasi_100nodes_network.node[34].core_layer 	interests[34] 	179987
scalar barabasi_100nodes_network.node[34].core_layer 	data[34] 	80897
scalar barabasi_100nodes_network.node[34].core_layer 	slots_sent[face$o[1]->client[34]] 	17998700
scalar barabasi_100nodes_network.node[34].core_layer 	slots_sent[face$o[2]->node[2]] 	0
scalar barabasi_100nodes_network.node[34].content_store 	p_hit[34] 	0.55053976120498
scalar barabasi_100nodes_network.node[34].content_store 	hits[34] 	99090
scalar barabasi_100nodes_network.node[34].content_store 	misses[34] 	80897
scalar barabasi_100nodes_network.node[34].content_store 	decision_yes[34] 	80897
scalar barabasi_100nodes_network.node[34].content_store 	decision_no[34] 	0
scalar barabasi_100nodes_network.node[34].content_store 	decision_ratio[34] 	1
scalar barabasi_100nodes_network.node[35].core_layer 	interests[35] 	261543
scalar barabasi_100nodes_network.node[35].core_layer 	data[35] 	156583
scalar barabasi_100nodes_network.node[35].core_layer 	slots_sent[face$o[1]->client[35]] 	18074700
scalar barabasi_100nodes_network.node[35].core_layer 	slots_sent[face$o[2]->node[5]] 	0
scalar barabasi_100nodes_network.node[35].core_layer 	slots_sent[face$o[3]->node[50]] 	8079600
scalar barabasi_100nodes_network.node[35].content_store 	p_hit[35] 	0.40131068313815
scalar barabasi_100nodes_network.node[35].content_store 	hits[35] 	104960
scalar barabasi_100nodes_network.node[35].content_store 	misses[35] 	156583
scalar barabasi_100nodes_network.node[35].content_store 	decision_yes[35] 	156583
scalar barabasi_100nodes_network.node[35].content_store 	decision_no[35] 	0
scalar barabasi_100nodes_network.node[35].content_store 	decision_ratio[35] 	1
scalar barabasi_100nodes_network.node[36].core_layer 	interests[36] 	260728
scalar barabasi_100nodes_network.node[36].core_layer 	data[36] 	156687
scalar barabasi_100nodes_network.node[36].core_layer 	slots_sent[face$o[1]->client[36]] 	17972900
scalar barabasi_100nodes_network.node[36].core_layer 	slots_sent[face$o[2]->node[2]] 	0
scalar barabasi_100nodes_network.node[36].core_layer 	slots_sent[face$o[3]->node[75]] 	8099900
scalar barabasi_100nodes_network.node[36].content_store 	p_hit[36] 	0.3990403792458
scalar barabasi_100nodes_network.node[36].content_store 	hits[36] 	104041
scalar barabasi_100nodes_network.node[36].content_store 	misses[36] 	156687
scalar barabasi_100nodes_network.node[36].content_store 	decision_yes[36] 	156687
scalar barabasi_100nodes_network.node[36].content_store 	decision_no[36] 	0
scalar barabasi_100nodes_network.node[36].content_store 	decision_ratio[36] 	1
scalar barabasi_100nodes_network.node[37].core_layer 	interests[37] 	179908
scalar barabasi_100nodes_network.node[37].core_layer 	data[37] 	80795
scalar barabasi_100nodes_network.node[37].core_layer 	slots_sent[face$o[1]->client[37]] 	17990800
scalar barabasi_100nodes_network.node[37].core_layer 	slots_sent[face$o[2]->node[0]] 	0
scalar barabasi_100nodes_network.node[37].content_store 	p_hit[37] 	0.55090935366965
scalar barabasi_100nodes_network.node[37].content_store 	hits[37] 	99113
scalar barabasi_100nodes_network.node[37].content_store 	misses[37] 	80795
scalar barabasi_100nodes_network.node[37].content_store 	decision_yes[37] 	80795
scalar barabasi_100nodes_network.node[37].content_store 	decision_no[37] 	0
scalar barabasi_100nodes_network.node[37].content_store 	decision_ratio[37] 	1
scalar barabasi_100nodes_network.node[38].core_layer 	interests[38] 	179780
scalar barabasi_100nodes_network.node[38].core_layer 	data[38] 	80918
scalar barabasi_100nodes_network.node[38].core_layer 	slots_sent[face$o[1]->client[38]] 	17978000
scalar barabasi_100nodes_network.node[38].core_layer 	slots_sent[face$o[2]->node[25]] 	0
scalar barabasi_100nodes_network.node[38].content_store 	p_hit[38] 	0.5499054399822
scalar barabasi_100nodes_network.node[38].content_store 	hits[38] 	98862
scalar barabasi_100nodes_network.node[38].content_store 	misses[38] 	80918
scalar barabasi_100nodes_network.node[38].content_store 	decision_yes[38] 	80918
scalar barabasi_100nodes_network.node[38].content_store 	decision_no[38] 	0
scalar barabasi_100nodes_network.node[38].content_store 	decision_ratio[38] 	1
scalar barabasi_100nodes_network.node[39].core_layer 	interests[39] 	260927
scalar barabasi_100nodes_network.node[39].core_layer 	data[39] 	156767
scalar barabasi_100nodes_network.node[39].core_layer 	slots_sent[face$o[1]->client[39]] 	17980700
scalar barabasi_100nodes_network.node[39].core_layer 	slots_sent[face$o[2]->node[8]] 	0
scalar barabasi_100nodes_network.node[39].core_layer 	slots_sent[face$o[3]->node[60]] 	8112000
scalar barabasi_100nodes_network.node[39].content_store 	p_hit[39] 	0.39919211120352
scalar barabasi_100nodes_network.node[39].content_store 	hits[39] 	104160
scalar barabasi_100nodes_network.node[39].content_store 	misses[39] 	156767
scalar barabasi_100nodes_network.node[39].content_store 	decision_yes[39] 	156767
scalar barabasi_100nodes_network.node[39].content_store 	decision_no[39] 	0
scalar barabasi_100nodes_network.node[39].content_store 	decision_ratio[39] 	1
scalar barabasi_100nodes_network.node[40].core_layer 	interests[40] 	179581
scalar barabasi_100nodes_network.node[40].core_layer 	data[40] 	80734
scalar barabasi_100nodes_network.node[40].core_layer 	slots_sent[face$o[1]->client[40]] 	17958100
scalar barabasi_100nodes_network.node[40].core_layer 	slots_sent[face$o[2]->node[15]] 	0
scalar barabasi_100nodes_network.node[40].content_store 	p_hit[40] 	0.55043128170575
scalar barabasi_100nodes_network.node[40].content_store 	hits[40] 	98847
scalar barabasi_100nodes_network.node[40].content_store 	misses[40] 	80734
scalar barabasi_100nodes_network.node[40].content_store 	decision_yes[40] 	80734
scalar barabasi_100nodes_network.node[40].content_store 	decision_no[40] 	0
scalar barabasi_100nodes_network.node[40].content_store 	decision_ratio[40] 	1
scalar barabasi_100nodes_network.node[41].core_layer 	interests[41] 	659187
scalar barabasi_100nodes_network.node[41].core_layer 	repo_load[41] 	160568
scalar barabasi_100nodes_network.node[41].core_layer 	data[41] 	373148
scalar barabasi_100nodes_network.node[41].core_layer 	slots_sent[face$o[1]->client[41]] 	18009700
scalar barabasi_100nodes_network.node[41].core_layer 	slots_sent[face$o[2]->node[2]] 	0
scalar barabasi_100nodes_network.node[41].core_layer 	slots_sent[face$o[3]->node[42]] 	8022000
scalar barabasi_100nodes_network.node[41].core_layer 	slots_sent[face$o[4]->node[48]] 	8116100
scalar barabasi_100nodes_network.node[41].core_layer 	slots_sent[face$o[5]->node[54]] 	15670100
scalar barabasi_100nodes_network.node[41].core_layer 	slots_sent[face$o[6]->node[55]] 	8062100
scalar barabasi_100nodes_network.node[41].core_layer 	slots_sent[face$o[7]->node[69]] 	8038700
scalar barabasi_100nodes_network.node[41].content_store 	p_hit[41] 	0.19034204254635
scalar barabasi_100nodes_network.node[41].content_store 	hits[41] 	125471
scalar barabasi_100nodes_network.node[41].content_store 	misses[41] 	533716
scalar barabasi_100nodes_network.node[41].content_store 	decision_yes[41] 	373148
scalar barabasi_100nodes_network.node[41].content_store 	decision_no[41] 	160568
scalar barabasi_100nodes_network.node[41].content_store 	decision_ratio[41] 	0.69915085925848
scalar barabasi_100nodes_network.node[42].core_layer 	interests[42] 	179241
scalar barabasi_100nodes_network.node[42].core_layer 	data[42] 	80220
scalar barabasi_100nodes_network.node[42].core_layer 	slots_sent[face$o[1]->client[42]] 	17924100
scalar barabasi_100nodes_network.node[42].core_layer 	slots_sent[face$o[2]->node[41]] 	0
scalar barabasi_100nodes_network.node[42].content_store 	p_hit[42] 	0.55244614792375
scalar barabasi_100nodes_network.node[42].content_store 	hits[42] 	99021
scalar barabasi_100nodes_network.node[42].content_store 	misses[42] 	80220
scalar barabasi_100nodes_network.node[42].content_store 	decision_yes[42] 	80220
scalar barabasi_100nodes_network.node[42].content_store 	decision_no[42] 	0
scalar barabasi_100nodes_network.node[42].content_store 	decision_ratio[42] 	1
scalar barabasi_100nodes_network.node[43].core_layer 	interests[43] 	180023
scalar barabasi_100nodes_network.node[43].core_layer 	data[43] 	80936
scalar barabasi_100nodes_network.node[43].core_layer 	slots_sent[face$o[1]->client[43]] 	18002300
scalar barabasi_100nodes_network.node[43].core_layer 	slots_sent[face$o[2]->node[32]] 	0
scalar barabasi_100nodes_network.node[43].content_store 	p_hit[43] 	0.55041300278298
scalar barabasi_100nodes_network.node[43].content_store 	hits[43] 	99087
scalar barabasi_100nodes_network.node[43].content_store 	misses[43] 	80936
scalar barabasi_100nodes_network.node[43].content_store 	decision_yes[43] 	80936
scalar barabasi_100nodes_network.node[43].content_store 	decision_no[43] 	0
scalar barabasi_100nodes_network.node[43].content_store 	decision_ratio[43] 	1
scalar barabasi_100nodes_network.node[44].core_layer 	interests[44] 	179268
scalar barabasi_100nodes_network.node[44].core_layer 	data[44] 	81108
scalar barabasi_100nodes_network.node[44].core_layer 	slots_sent[face$o[1]->client[44]] 	17926800
scalar barabasi_100nodes_network.node[44].core_layer 	slots_sent[face$o[2]->node[0]] 	0
scalar barabasi_100nodes_network.node[44].content_store 	p_hit[44] 	0.54756007764911
scalar barabasi_100nodes_network.node[44].content_store 	hits[44] 	98160
scalar barabasi_100nodes_network.node[44].content_store 	misses[44] 	81108
scalar barabasi_100nodes_network.node[44].content_store 	decision_yes[44] 	81108
scalar barabasi_100nodes_network.node[44].content_store 	decision_no[44] 	0
scalar barabasi_100nodes_network.node[44].content_store 	decision_ratio[44] 	1
scalar barabasi_100nodes_network.node[45].core_layer 	interests[45] 	179179
scalar barabasi_100nodes_network.node[45].core_layer 	data[45] 	80518
scalar barabasi_100nodes_network.node[45].core_layer 	slots_sent[face$o[1]->client[45]] 	17917900
scalar barabasi_100nodes_network.node[45].core_layer 	slots_sent[face$o[2]->node[2]] 	0
scalar barabasi_100nodes_network.node[45].content_store 	p_hit[45] 	0.55062814280691
scalar barabasi_100nodes_network.node[45].content_store 	hits[45] 	98661
scalar barabasi_100nodes_network.node[45].content_store 	misses[45] 	80518
scalar barabasi_100nodes_network.node[45].content_store 	decision_yes[45] 	80518
scalar barabasi_100nodes_network.node[45].content_store 	decision_no[45] 	0
scalar barabasi_100nodes_network.node[45].content_store 	decision_ratio[45] 	1
scalar barabasi_100nodes_network.node[46].core_layer 	interests[46] 	261538
scalar barabasi_100nodes_network.node[46].core_layer 	data[46] 	156604
scalar barabasi_100nodes_network.node[46].core_layer 	slots_sent[face$o[1]->client[46]] 	18033400
scalar barabasi_100nodes_network.node[46].core_layer 	slots_sent[face$o[2]->node[23]] 	0
scalar barabasi_100nodes_network.node[46].core_layer 	slots_sent[face$o[3]->node[82]] 	8120400
scalar barabasi_100nodes_network.node[46].content_store 	p_hit[46] 	0.40121894332755
scalar barabasi_100nodes_network.node[46].content_store 	hits[46] 	104934
scalar barabasi_100nodes_network.node[46].content_store 	misses[46] 	156604
scalar barabasi_100nodes_network.node[46].content_store 	decision_yes[46] 	156604
scalar barabasi_100nodes_network.node[46].content_store 	decision_no[46] 	0
scalar barabasi_100nodes_network.node[46].content_store 	decision_ratio[46] 	1
scalar barabasi_100nodes_network.node[47].core_layer 	interests[47] 	179334
scalar barabasi_100nodes_network.node[47].core_layer 	repo_load[47] 	39958
scalar barabasi_100nodes_network.node[47].core_layer 	data[47] 	57434
scalar barabasi_100nodes_network.node[47].core_layer 	slots_sent[face$o[1]->client[47]] 	17933400
scalar barabasi_100nodes_network.node[47].core_layer 	slots_sent[face$o[2]->node[23]] 	0
scalar barabasi_100nodes_network.node[47].content_store 	p_hit[47] 	0.45692395195557
scalar barabasi_100nodes_network.node[47].content_store 	hits[47] 	81942
scalar barabasi_100nodes_network.node[47].content_store 	misses[47] 	97392
scalar barabasi_100nodes_network.node[47].content_store 	decision_yes[47] 	57434
scalar barabasi_100nodes_network.node[47].content_store 	decision_no[47] 	39958
scalar barabasi_100nodes_network.node[47].content_store 	decision_ratio[47] 	0.58971989485789
scalar barabasi_100nodes_network.node[48].core_layer 	interests[48] 	179822
scalar barabasi_100nodes_network.node[48].core_layer 	data[48] 	81161
scalar barabasi_100nodes_network.node[48].core_layer 	slots_sent[face$o[1]->client[48]] 	17982200
scalar barabasi_100nodes_network.node[48].core_layer 	slots_sent[face$o[2]->node[41]] 	0
scalar barabasi_100nodes_network.node[48].content_store 	p_hit[48] 	0.54865922968269
scalar barabasi_100nodes_network.node[48].content_store 	hits[48] 	98661
scalar barabasi_100nodes_network.node[48].content_store 	misses[48] 	81161
scalar barabasi_100nodes_network.node[48].content_store 	decision_yes[48] 	81161
scalar barabasi_100nodes_network.node[48].content_store 	decision_no[48] 	0
scalar barabasi_100nodes_network.node[48].content_store 	decision_ratio[48] 	1
scalar barabasi_100nodes_network.node[49].core_layer 	interests[49] 	179930
scalar barabasi_100nodes_network.node[49].core_layer 	data[49] 	80699
scalar barabasi_100nodes_network.node[49].core_layer 	slots_sent[face$o[1]->client[49]] 	17993000
scalar barabasi_100nodes_network.node[49].core_layer 	slots_sent[face$o[2]->node[7]] 	0
scalar barabasi_100nodes_network.node[49].content_store 	p_hit[49] 	0.55149780470183
scalar barabasi_100nodes_network.node[49].content_store 	hits[49] 	99231
scalar barabasi_100nodes_network.node[49].content_store 	misses[49] 	80699
scalar barabasi_100nodes_network.node[49].content_store 	decision_yes[49] 	80699
scalar barabasi_100nodes_network.node[49].content_store 	decision_no[49] 	0
scalar barabasi_100nodes_network.node[49].content_store 	decision_ratio[49] 	1
scalar barabasi_100nodes_network.node[50].core_layer 	interests[50] 	179795
scalar barabasi_100nodes_network.node[50].core_layer 	data[50] 	80796
scalar barabasi_100nodes_network.node[50].core_layer 	slots_sent[face$o[1]->client[50]] 	17979500
scalar barabasi_100nodes_network.node[50].core_layer 	slots_sent[face$o[2]->node[35]] 	0
scalar barabasi_100nodes_network.node[50].content_store 	p_hit[50] 	0.5506215411997
scalar barabasi_100nodes_network.node[50].content_store 	hits[50] 	98999
[...]
scalar barabasi_100nodes_network.client[8] 	avg_time[8].real 	0
scalar barabasi_100nodes_network.client[9] 	hdistance[9].real 	1.5669320147235
scalar barabasi_100nodes_network.client[9] 	downloads[9].real 	180392
scalar barabasi_100nodes_network.client[9] 	avg_time[9].real 	0
scalar barabasi_100nodes_network.client[10] 	hdistance[10].real 	1.5221567003663
scalar barabasi_100nodes_network.client[10] 	downloads[10].real 	179923
scalar barabasi_100nodes_network.client[10] 	avg_time[10].real 	0
scalar barabasi_100nodes_network.client[11] 	hdistance[11].real 	1.4801988428543
scalar barabasi_100nodes_network.client[11] 	downloads[11].real 	180444
scalar barabasi_100nodes_network.client[11] 	avg_time[11].real 	0
scalar barabasi_100nodes_network.client[12] 	hdistance[12].real 	1.9678610145935
scalar barabasi_100nodes_network.client[12] 	downloads[12].real 	179875
scalar barabasi_100nodes_network.client[12] 	avg_time[12].real 	0
scalar barabasi_100nodes_network.client[13] 	hdistance[13].real 	1.7772033398931
scalar barabasi_100nodes_network.client[13] 	downloads[13].real 	179886
scalar barabasi_100nodes_network.client[13] 	avg_time[13].real 	0
scalar barabasi_100nodes_network.client[14] 	hdistance[14].real 	1.9711567914367
scalar barabasi_100nodes_network.client[14] 	downloads[14].real 	179557
scalar barabasi_100nodes_network.client[14] 	avg_time[14].real 	0
scalar barabasi_100nodes_network.client[15] 	hdistance[15].real 	1.4620516495298
scalar barabasi_100nodes_network.client[15] 	downloads[15].real 	180021
scalar barabasi_100nodes_network.client[15] 	avg_time[15].real 	0
scalar barabasi_100nodes_network.client[16] 	hdistance[16].real 	1.8026822481914
scalar barabasi_100nodes_network.client[16] 	downloads[16].real 	179700
scalar barabasi_100nodes_network.client[16] 	avg_time[16].real 	0
scalar barabasi_100nodes_network.client[17] 	hdistance[17].real 	1.9745891374935
scalar barabasi_100nodes_network.client[17] 	downloads[17].real 	180474
scalar barabasi_100nodes_network.client[17] 	avg_time[17].real 	0
scalar barabasi_100nodes_network.client[18] 	hdistance[18].real 	1.5281348249697
scalar barabasi_100nodes_network.client[18] 	downloads[18].real 	180026
scalar barabasi_100nodes_network.client[18] 	avg_time[18].real 	0
scalar barabasi_100nodes_network.client[19] 	hdistance[19].real 	2.1386245734735
scalar barabasi_100nodes_network.client[19] 	downloads[19].real 	180235
scalar barabasi_100nodes_network.client[19] 	avg_time[19].real 	0
scalar barabasi_100nodes_network.client[20] 	hdistance[20].real 	1.9666013973566
scalar barabasi_100nodes_network.client[20] 	downloads[20].real 	179768
scalar barabasi_100nodes_network.client[20] 	avg_time[20].real 	0
scalar barabasi_100nodes_network.client[21] 	hdistance[21].real 	1.5401754637968
scalar barabasi_100nodes_network.client[21] 	downloads[21].real 	181006
scalar barabasi_100nodes_network.client[21] 	avg_time[21].real 	0
scalar barabasi_100nodes_network.client[22] 	hdistance[22].real 	1.3715271422312
scalar barabasi_100nodes_network.client[22] 	downloads[22].real 	180291
scalar barabasi_100nodes_network.client[22] 	avg_time[22].real 	0
scalar barabasi_100nodes_network.client[23] 	hdistance[23].real 	2.1554249588175
scalar barabasi_100nodes_network.client[23] 	downloads[23].real 	179688
scalar barabasi_100nodes_network.client[23] 	avg_time[23].real 	0
scalar barabasi_100nodes_network.client[24] 	hdistance[24].real 	1.6087315489406
scalar barabasi_100nodes_network.client[24] 	downloads[24].real 	179258
scalar barabasi_100nodes_network.client[24] 	avg_time[24].real 	0
scalar barabasi_100nodes_network.client[25] 	hdistance[25].real 	1.713253266964
scalar barabasi_100nodes_network.client[25] 	downloads[25].real 	179601
scalar barabasi_100nodes_network.client[25] 	avg_time[25].real 	0
scalar barabasi_100nodes_network.client[26] 	hdistance[26].real 	1.5769962611831
scalar barabasi_100nodes_network.client[26] 	downloads[26].real 	179736
scalar barabasi_100nodes_network.client[26] 	avg_time[26].real 	0
scalar barabasi_100nodes_network.client[27] 	hdistance[27].real 	1.7758289043563
scalar barabasi_100nodes_network.client[27] 	downloads[27].real 	179876
scalar barabasi_100nodes_network.client[27] 	avg_time[27].real 	0
scalar barabasi_100nodes_network.client[28] 	hdistance[28].real 	1.3733194528723
scalar barabasi_100nodes_network.client[28] 	downloads[28].real 	179629
scalar barabasi_100nodes_network.client[28] 	avg_time[28].real 	0
scalar barabasi_100nodes_network.client[29] 	hdistance[29].real 	1.6628942147756
scalar barabasi_100nodes_network.client[29] 	downloads[29].real 	180961
scalar barabasi_100nodes_network.client[29] 	avg_time[29].real 	0
scalar barabasi_100nodes_network.client[30] 	hdistance[30].real 	2.0409738258075
scalar barabasi_100nodes_network.client[30] 	downloads[30].real 	181018
scalar barabasi_100nodes_network.client[30] 	avg_time[30].real 	0
scalar barabasi_100nodes_network.client[31] 	hdistance[31].real 	2.0927059685503
scalar barabasi_100nodes_network.client[31] 	downloads[31].real 	180161
scalar barabasi_100nodes_network.client[31] 	avg_time[31].real 	0
scalar barabasi_100nodes_network.client[32] 	hdistance[32].real 	1.4722652275844
scalar barabasi_100nodes_network.client[32] 	downloads[32].real 	180856
scalar barabasi_100nodes_network.client[32] 	avg_time[32].real 	0
scalar barabasi_100nodes_network.client[33] 	hdistance[33].real 	1.6747573085899
scalar barabasi_100nodes_network.client[33] 	downloads[33].real 	179549
scalar barabasi_100nodes_network.client[33] 	avg_time[33].real 	0
scalar barabasi_100nodes_network.client[34] 	hdistance[34].real 	1.66043103113
scalar barabasi_100nodes_network.client[34] 	downloads[34].real 	179987
scalar barabasi_100nodes_network.client[34] 	avg_time[34].real 	0
scalar barabasi_100nodes_network.client[35] 	hdistance[35].real 	1.7425462110021
scalar barabasi_100nodes_network.client[35] 	downloads[35].real 	180747
scalar barabasi_100nodes_network.client[35] 	avg_time[35].real 	0
scalar barabasi_100nodes_network.client[36] 	hdistance[36].real 	1.7165454656733
scalar barabasi_100nodes_network.client[36] 	downloads[36].real 	179729
scalar barabasi_100nodes_network.client[36] 	avg_time[36].real 	0
scalar barabasi_100nodes_network.client[37] 	hdistance[37].real 	1.4710741045423
scalar barabasi_100nodes_network.client[37] 	downloads[37].real 	179908
scalar barabasi_100nodes_network.client[37] 	avg_time[37].real 	0
scalar barabasi_100nodes_network.client[38] 	hdistance[38].real 	1.9864445433307
scalar barabasi_100nodes_network.client[38] 	downloads[38].real 	179780
scalar barabasi_100nodes_network.client[38] 	avg_time[38].real 	0
scalar barabasi_100nodes_network.client[39] 	hdistance[39].real 	2.0320565940147
scalar barabasi_100nodes_network.client[39] 	downloads[39].real 	179807
scalar barabasi_100nodes_network.client[39] 	avg_time[39].real 	0
scalar barabasi_100nodes_network.client[40] 	hdistance[40].real 	1.6086557041112
scalar barabasi_100nodes_network.client[40] 	downloads[40].real 	179581
scalar barabasi_100nodes_network.client[40] 	avg_time[40].real 	0
scalar barabasi_100nodes_network.client[41] 	hdistance[41].real 	1.5494983259022
scalar barabasi_100nodes_network.client[41] 	downloads[41].real 	180097
scalar barabasi_100nodes_network.client[41] 	avg_time[41].real 	0
scalar barabasi_100nodes_network.client[42] 	hdistance[42].real 	1.6958396795376
scalar barabasi_100nodes_network.client[42] 	downloads[42].real 	179241
scalar barabasi_100nodes_network.client[42] 	avg_time[42].real 	0
scalar barabasi_100nodes_network.client[43] 	hdistance[43].real 	1.5261438816151
scalar barabasi_100nodes_network.client[43] 	downloads[43].real 	180023
scalar barabasi_100nodes_network.client[43] 	avg_time[43].real 	0
scalar barabasi_100nodes_network.client[44] 	hdistance[44].real 	1.4842191579088
scalar barabasi_100nodes_network.client[44] 	downloads[44].real 	179268
scalar barabasi_100nodes_network.client[44] 	avg_time[44].real 	0
scalar barabasi_100nodes_network.client[45] 	hdistance[45].real 	1.6649049274748
scalar barabasi_100nodes_network.client[45] 	downloads[45].real 	179179
scalar barabasi_100nodes_network.client[45] 	avg_time[45].real 	0
scalar barabasi_100nodes_network.client[46] 	hdistance[46].real 	2.3583406346002
scalar barabasi_100nodes_network.client[46] 	downloads[46].real 	180334
scalar barabasi_100nodes_network.client[46] 	avg_time[46].real 	0
scalar barabasi_100nodes_network.client[47] 	hdistance[47].real 	1.9257976736146
scalar barabasi_100nodes_network.client[47] 	downloads[47].real 	179334
scalar barabasi_100nodes_network.client[47] 	avg_time[47].real 	0
scalar barabasi_100nodes_network.client[48] 	hdistance[48].real 	1.710274604887
scalar barabasi_100nodes_network.client[48] 	downloads[48].real 	179822
scalar barabasi_100nodes_network.client[48] 	avg_time[48].real 	0
scalar barabasi_100nodes_network.client[49] 	hdistance[49].real 	1.974862446507
scalar barabasi_100nodes_network.client[49] 	downloads[49].real 	179930
scalar barabasi_100nodes_network.client[49] 	avg_time[49].real 	0
scalar barabasi_100nodes_network.client[50] 	hdistance[50].real 	2.0032370199393
scalar barabasi_100nodes_network.client[50] 	downloads[50].real 	179795
scalar barabasi_100nodes_network.client[50] 	avg_time[50].real 	0
scalar barabasi_100nodes_network.client[51] 	hdistance[51].real 	2.3077170293288
scalar barabasi_100nodes_network.client[51] 	downloads[51].real 	180471
scalar barabasi_100nodes_network.client[51] 	avg_time[51].real 	0
scalar barabasi_100nodes_network.client[52] 	hdistance[52].real 	1.9840904915916
scalar barabasi_100nodes_network.client[52] 	downloads[52].real 	179641
scalar barabasi_100nodes_network.client[52] 	avg_time[52].real 	0
scalar barabasi_100nodes_network.client[53] 	hdistance[53].real 	1.7120282611482
scalar barabasi_100nodes_network.client[53] 	downloads[53].real 	179469
scalar barabasi_100nodes_network.client[53] 	avg_time[53].real 	0
scalar barabasi_100nodes_network.client[54] 	hdistance[54].real 	1.7690881557117
scalar barabasi_100nodes_network.client[54] 	downloads[54].real 	179614
scalar barabasi_100nodes_network.client[54] 	avg_time[54].real 	0
scalar barabasi_100nodes_network.client[55] 	hdistance[55].real 	1.7128454341046
scalar barabasi_100nodes_network.client[55] 	downloads[55].real 	179231
scalar barabasi_100nodes_network.client[55] 	avg_time[55].real 	0
scalar barabasi_100nodes_network.client[56] 	hdistance[56].real 	1.3232737339051
scalar barabasi_100nodes_network.client[56] 	downloads[56].real 	180259
scalar barabasi_100nodes_network.client[56] 	avg_time[56].real 	0
scalar barabasi_100nodes_network.client[57] 	hdistance[57].real 	1.5022448468664
scalar barabasi_100nodes_network.client[57] 	downloads[57].real 	179745
scalar barabasi_100nodes_network.client[57] 	avg_time[57].real 	0
scalar barabasi_100nodes_network.client[58] 	hdistance[58].real 	1.5220705746089
scalar barabasi_100nodes_network.client[58] 	downloads[58].real 	179583
scalar barabasi_100nodes_network.client[58] 	avg_time[58].real 	0
scalar barabasi_100nodes_network.client[59] 	hdistance[59].real 	1.6724880874937
scalar barabasi_100nodes_network.client[59] 	downloads[59].real 	179853
scalar barabasi_100nodes_network.client[59] 	avg_time[59].real 	0
scalar barabasi_100nodes_network.client[60] 	hdistance[60].real 	2.3039334989192
scalar barabasi_100nodes_network.client[60] 	downloads[60].real 	179967
scalar barabasi_100nodes_network.client[60] 	avg_time[60].real 	0
scalar barabasi_100nodes_network.client[61] 	hdistance[61].real 	1.9762331316246
scalar barabasi_100nodes_network.client[61] 	downloads[61].real 	180293
scalar barabasi_100nodes_network.client[61] 	avg_time[61].real 	0
scalar barabasi_100nodes_network.client[62] 	hdistance[62].real 	1.7412679452297
scalar barabasi_100nodes_network.client[62] 	downloads[62].real 	180828
scalar barabasi_100nodes_network.client[62] 	avg_time[62].real 	0
scalar barabasi_100nodes_network.client[63] 	hdistance[63].real 	2.3228659539704
scalar barabasi_100nodes_network.client[63] 	downloads[63].real 	179319
scalar barabasi_100nodes_network.client[63] 	avg_time[63].real 	0
scalar barabasi_100nodes_network.client[64] 	hdistance[64].real 	1.4212267171534
scalar barabasi_100nodes_network.client[64] 	downloads[64].real 	179585
scalar barabasi_100nodes_network.client[64] 	avg_time[64].real 	0
scalar barabasi_100nodes_network.client[65] 	hdistance[65].real 	2.440928845287
scalar barabasi_100nodes_network.client[65] 	downloads[65].real 	179707
scalar barabasi_100nodes_network.client[65] 	avg_time[65].real 	0
scalar barabasi_100nodes_network.client[66] 	hdistance[66].real 	1.9700608096497
scalar barabasi_100nodes_network.client[66] 	downloads[66].real 	180399
scalar barabasi_100nodes_network.client[66] 	avg_time[66].real 	0
scalar barabasi_100nodes_network.client[67] 	hdistance[67].real 	1.9632136926811
scalar barabasi_100nodes_network.client[67] 	downloads[67].real 	180067
scalar barabasi_100nodes_network.client[67] 	avg_time[67].real 	0
scalar barabasi_100nodes_network.client[68] 	hdistance[68].real 	1.7166912030221
scalar barabasi_100nodes_network.client[68] 	downloads[68].real 	180005
scalar barabasi_100nodes_network.client[68] 	avg_time[68].real 	0
scalar barabasi_100nodes_network.client[69] 	hdistance[69].real 	1.6998828386521
scalar barabasi_100nodes_network.client[69] 	downloads[69].real 	179240
scalar barabasi_100nodes_network.client[69] 	avg_time[69].real 	0
scalar barabasi_100nodes_network.client[70] 	hdistance[70].real 	2.3146542398269
scalar barabasi_100nodes_network.client[70] 	downloads[70].real 	180255
scalar barabasi_100nodes_network.client[70] 	avg_time[70].real 	0
scalar barabasi_100nodes_network.client[71] 	hdistance[71].real 	1.8083088557833
scalar barabasi_100nodes_network.client[71] 	downloads[71].real 	180097
scalar barabasi_100nodes_network.client[71] 	avg_time[71].real 	0
scalar barabasi_100nodes_network.client[72] 	hdistance[72].real 	1.7184232144047
scalar barabasi_100nodes_network.client[72] 	downloads[72].real 	180164
scalar barabasi_100nodes_network.client[72] 	avg_time[72].real 	0
scalar barabasi_100nodes_network.client[73] 	hdistance[73].real 	1.514779063826
scalar barabasi_100nodes_network.client[73] 	downloads[73].real 	180052
scalar barabasi_100nodes_network.client[73] 	avg_time[73].real 	0
scalar barabasi_100nodes_network.client[74] 	hdistance[74].real 	1.4783224316191
scalar barabasi_100nodes_network.client[74] 	downloads[74].real 	180094
scalar barabasi_100nodes_network.client[74] 	avg_time[74].real 	0
scalar barabasi_100nodes_network.client[75] 	hdistance[75].real 	1.9870262528243
scalar barabasi_100nodes_network.client[75] 	downloads[75].real 	180133
scalar barabasi_100nodes_network.client[75] 	avg_time[75].real 	0
scalar barabasi_100nodes_network.client[76] 	hdistance[76].real 	1.8036588149493
scalar barabasi_100nodes_network.client[76] 	downloads[76].real 	179621
scalar barabasi_100nodes_network.client[76] 	avg_time[76].real 	0
scalar barabasi_100nodes_network.client[77] 	hdistance[77].real 	1.7646137641623
scalar barabasi_100nodes_network.client[77] 	downloads[77].real 	179437
scalar barabasi_100nodes_network.client[77] 	avg_time[77].real 	0
scalar barabasi_100nodes_network.client[78] 	hdistance[78].real 	2.077230801578
scalar barabasi_100nodes_network.client[78] 	downloads[78].real 	180731
scalar barabasi_100nodes_network.client[78] 	avg_time[78].real 	0
scalar barabasi_100nodes_network.client[79] 	hdistance[79].real 	1.6601270148184
scalar barabasi_100nodes_network.client[79] 	downloads[79].real 	179979
scalar barabasi_100nodes_network.client[79] 	avg_time[79].real 	0
scalar barabasi_100nodes_network.client[80] 	hdistance[80].real 	2.3216473565056
scalar barabasi_100nodes_network.client[80] 	downloads[80].real 	180216
scalar barabasi_100nodes_network.client[80] 	avg_time[80].real 	0
scalar barabasi_100nodes_network.client[81] 	hdistance[81].real 	1.9835638839293
scalar barabasi_100nodes_network.client[81] 	downloads[81].real 	179787
scalar barabasi_100nodes_network.client[81] 	avg_time[81].real 	0
scalar barabasi_100nodes_network.client[82] 	hdistance[82].real 	2.6376448080442
scalar barabasi_100nodes_network.client[82] 	downloads[82].real 	179807
scalar barabasi_100nodes_network.client[82] 	avg_time[82].real 	0
scalar barabasi_100nodes_network.client[83] 	hdistance[83].real 	2.3039259201722
scalar barabasi_100nodes_network.client[83] 	downloads[83].real 	180238
scalar barabasi_100nodes_network.client[83] 	avg_time[83].real 	0
scalar barabasi_100nodes_network.client[84] 	hdistance[84].real 	2.0439407313647
scalar barabasi_100nodes_network.client[84] 	downloads[84].real 	180129
scalar barabasi_100nodes_network.client[84] 	avg_time[84].real 	0
scalar barabasi_100nodes_network.client[85] 	hdistance[85].real 	1.9718516787151
scalar barabasi_100nodes_network.client[85] 	downloads[85].real 	179691
scalar barabasi_100nodes_network.client[85] 	avg_time[85].real 	0
scalar barabasi_100nodes_network.client[86] 	hdistance[86].real 	2.3060365907879
scalar barabasi_100nodes_network.client[86] 	downloads[86].real 	179936
scalar barabasi_100nodes_network.client[86] 	avg_time[86].real 	0
scalar barabasi_100nodes_network.client[87] 	hdistance[87].real 	2.3199562365669
scalar barabasi_100nodes_network.client[87] 	downloads[87].real 	180059
scalar barabasi_100nodes_network.client[87] 	avg_time[87].real 	0
scalar barabasi_100nodes_network.client[88] 	hdistance[88].real 	2.3132110672463
scalar barabasi_100nodes_network.client[88] 	downloads[88].real 	180099
scalar barabasi_100nodes_network.client[88] 	avg_time[88].real 	0
scalar barabasi_100nodes_network.client[89] 	hdistance[89].real 	2.3172596960862
scalar barabasi_100nodes_network.client[89] 	downloads[89].real 	181104
scalar barabasi_100nodes_network.client[89] 	avg_time[89].real 	0
scalar barabasi_100nodes_network.client[90] 	hdistance[90].real 	1.691654314408
scalar barabasi_100nodes_network.client[90] 	downloads[90].real 	180129
scalar barabasi_100nodes_network.client[90] 	avg_time[90].real 	0
scalar barabasi_100nodes_network.client[91] 	hdistance[91].real 	1.6829439057594
scalar barabasi_100nodes_network.client[91] 	downloads[91].real 	179965
scalar barabasi_100nodes_network.client[91] 	avg_time[91].real 	0
scalar barabasi_100nodes_network.client[92] 	hdistance[92].real 	2.3183103609521
scalar barabasi_100nodes_network.client[92] 	downloads[92].real 	179636
scalar barabasi_100nodes_network.client[92] 	avg_time[92].real 	0
scalar barabasi_100nodes_network.client[93] 	hdistance[93].real 	1.4656867391947
scalar barabasi_100nodes_network.client[93] 	downloads[93].real 	179333
scalar barabasi_100nodes_network.client[93] 	avg_time[93].real 	0
scalar barabasi_100nodes_network.client[94] 	hdistance[94].real 	1.8007089952382
scalar barabasi_100nodes_network.client[94] 	downloads[94].real 	179973
scalar barabasi_100nodes_network.client[94] 	avg_time[94].real 	0
scalar barabasi_100nodes_network.client[95] 	hdistance[95].real 	2.6390062691225
scalar barabasi_100nodes_network.client[95] 	downloads[95].real 	180089
scalar barabasi_100nodes_network.client[95] 	avg_time[95].real 	0
scalar barabasi_100nodes_network.client[96] 	hdistance[96].real 	2.0474361618515
scalar barabasi_100nodes_network.client[96] 	downloads[96].real 	179399
scalar barabasi_100nodes_network.client[96] 	avg_time[96].real 	0
scalar barabasi_100nodes_network.client[97] 	hdistance[97].real 	2.052538472203
scalar barabasi_100nodes_network.client[97] 	downloads[97].real 	180325
scalar barabasi_100nodes_network.client[97] 	avg_time[97].real 	0
scalar barabasi_100nodes_network.client[98] 	hdistance[98].real 	2.6499433673129
scalar barabasi_100nodes_network.client[98] 	downloads[98].real 	180108
scalar barabasi_100nodes_network.client[98] 	avg_time[98].real 	0
scalar barabasi_100nodes_network.client[99] 	hdistance[99].real 	1.9265291066798
scalar barabasi_100nodes_network.client[99] 	downloads[99].real 	178928
scalar barabasi_100nodes_network.client[99] 	avg_time[99].real 	0
