version 2
run General-0-20140904-16:31:51-25310
attr D costprobprodcorr0.01
attr F spr
attr R lru
attr a 1
attr configname General
attr csize 1e3
attr ctlg 1e5
attr datetime 20140904-16:31:51
attr experiment General
attr inifile omnetpp.ini
attr iterationvars "$net=abilene_cost, $rep=18, $priceratiovalue=10, $weights=0.333_0.333_0.334, $lambda=100, $a=1, $ctlg=1e5, $F=spr, $ttl=10, $D=costprobprodcorr0.01, $xi=1, $R=lru, $csize=1e3, $pricebits=0, $window=60, $variance=0.05, $mytime=1800"
attr iterationvars2 "$net=abilene_cost, $rep=18, $priceratiovalue=10, $weights=0.333_0.333_0.334, $lambda=100, $a=1, $ctlg=1e5, $F=spr, $ttl=10, $D=costprobprodcorr0.01, $xi=1, $R=lru, $csize=1e3, $pricebits=0, $window=60, $variance=0.05, $mytime=1800, $repetition=0"
attr lambda 100
attr measurement "$net=abilene_cost, $rep=18, $priceratiovalue=10, $weights=0.333_0.333_0.334, $lambda=100, $a=1, $ctlg=1e5, $F=spr, $ttl=10, $D=costprobprodcorr0.01, $xi=1, $R=lru, $csize=1e3, $pricebits=0, $window=60, $variance=0.05, $mytime=1800"
attr mytime 1800
attr net abilene_cost
attr network networks.${net=abilene_cost}_network
attr pricebits 0
attr priceratiovalue 10
attr processid 25310
attr rep 18
attr repetition 0
attr replication #0
attr resultdir results
attr runnumber 0
attr seedset 18
attr ttl 10
attr variance 0.05
attr weights 0.333_0.333_0.334
attr window 60
attr xi 1

scalar . 	a 	1
scalar . 	csize 	1e3
scalar . 	ctlg 	1e5
scalar . 	lambda 	100
scalar . 	mytime 	1800
scalar . 	pricebits 	0
scalar . 	priceratiovalue 	10
scalar . 	rep 	18
scalar . 	ttl 	10
scalar . 	variance 	0.05
scalar . 	window 	60
scalar . 	xi 	1
scalar abilene_cost_network.content_distribution 	repo-0 	10
scalar abilene_cost_network.content_distribution 	repo-1 	7
scalar abilene_cost_network.content_distribution 	repo-2 	8
scalar abilene_cost_network.content_distribution 	client-0 	5
scalar abilene_cost_network.content_distribution 	client-1 	7
scalar abilene_cost_network.content_distribution 	client-2 	1
scalar abilene_cost_network.content_distribution 	repo-0_card 	33459
scalar abilene_cost_network.content_distribution 	repo-0_price 	10
scalar abilene_cost_network.content_distribution 	repo-1_card 	33217
scalar abilene_cost_network.content_distribution 	repo-1_price 	1
scalar abilene_cost_network.content_distribution 	repo-2_card 	33324
scalar abilene_cost_network.content_distribution 	repo-2_price 	0
scalar abilene_cost_network.statistics 	repo_popularity[0] 	0.37601233625496
scalar abilene_cost_network.statistics 	repo_popularity[1] 	0.2643417951054
scalar abilene_cost_network.statistics 	repo_popularity[2] 	0.35964586863965
scalar abilene_cost_network.statistics 	stabilization_time 	36060
scalar abilene_cost_network.statistics 	p_hit 	0.10559880955544
scalar abilene_cost_network.statistics 	interests 	143689.63636364
scalar abilene_cost_network.statistics 	data 	94526.909090909
scalar abilene_cost_network.statistics 	hdistance 	2.6415622184307
scalar abilene_cost_network.statistics 	avg_time 	0.01235357718
scalar abilene_cost_network.statistics 	downloads 	533499
scalar abilene_cost_network.statistics 	total_cost 	937159
scalar abilene_cost_network.statistics 	total_replicas 	100000
scalar abilene_cost_network.statistics 	inner_hit 	0.3168009686991
scalar abilene_cost_network.statistics 	interests_sent 	540785
scalar abilene_cost_network.node[0].core_layer 	interests[0] 	0
scalar abilene_cost_network.node[0].core_layer 	data[0] 	0
scalar abilene_cost_network.node[0].core_layer 	repo_int[0] 	364486
scalar abilene_cost_network.node[0].content_store 	p_hit[0] 	-nan
scalar abilene_cost_network.node[0].content_store 	hits[0] 	0
scalar abilene_cost_network.node[0].content_store 	misses[0] 	0
scalar abilene_cost_network.node[0].content_store 	decision_yes[0] 	0
scalar abilene_cost_network.node[0].content_store 	decision_no[0] 	0
scalar abilene_cost_network.node[0].content_store 	decision_ratio[0] 	0
scalar abilene_cost_network.node[0].content_store 	correction_factor[0] 	0.0027225701061802
scalar abilene_cost_network.node[0].content_store 	xi[0] 	1
scalar abilene_cost_network.node[1].core_layer 	interests[1] 	219204
scalar abilene_cost_network.node[1].core_layer 	data[1] 	197461
scalar abilene_cost_network.node[1].content_store 	p_hit[1] 	0.087366106457911
scalar abilene_cost_network.node[1].content_store 	hits[1] 	19151
scalar abilene_cost_network.node[1].content_store 	misses[1] 	200053
scalar abilene_cost_network.node[1].content_store 	decision_yes[1] 	1656
scalar abilene_cost_network.node[1].content_store 	decision_no[1] 	195805
scalar abilene_cost_network.node[1].content_store 	decision_ratio[1] 	0.00838646618826
scalar abilene_cost_network.node[1].content_store 	correction_factor[1] 	0.0027225701061802
scalar abilene_cost_network.node[1].content_store 	xi[1] 	1
scalar abilene_cost_network.node[2].core_layer 	interests[2] 	158225
scalar abilene_cost_network.node[2].core_layer 	data[2] 	145151
scalar abilene_cost_network.node[2].content_store 	p_hit[2] 	0.082616527097488
scalar abilene_cost_network.node[2].content_store 	hits[2] 	13072
scalar abilene_cost_network.node[2].content_store 	misses[2] 	145153
scalar abilene_cost_network.node[2].content_store 	decision_yes[2] 	760
scalar abilene_cost_network.node[2].content_store 	decision_no[2] 	144391
scalar abilene_cost_network.node[2].content_store 	decision_ratio[2] 	0.0052359267245834
scalar abilene_cost_network.node[2].content_store 	correction_factor[2] 	0.0027225701061802
scalar abilene_cost_network.node[2].content_store 	xi[2] 	1
scalar abilene_cost_network.node[3].core_layer 	interests[3] 	95560
scalar abilene_cost_network.node[3].core_layer 	data[3] 	86397
scalar abilene_cost_network.node[3].content_store 	p_hit[3] 	0.095866471326915
scalar abilene_cost_network.node[3].content_store 	hits[3] 	9161
scalar abilene_cost_network.node[3].content_store 	misses[3] 	86399
scalar abilene_cost_network.node[3].content_store 	decision_yes[3] 	791
scalar abilene_cost_network.node[3].content_store 	decision_no[3] 	85606
scalar abilene_cost_network.node[3].content_store 	decision_ratio[3] 	0.0091554104887901
scalar abilene_cost_network.node[3].content_store 	correction_factor[3] 	0.0027225701061802
scalar abilene_cost_network.node[3].content_store 	xi[3] 	1
scalar abilene_cost_network.node[4].core_layer 	interests[4] 	62696
scalar abilene_cost_network.node[4].core_layer 	data[4] 	53084
scalar abilene_cost_network.node[4].content_store 	p_hit[4] 	0.15329526604568
scalar abilene_cost_network.node[4].content_store 	hits[4] 	9611
scalar abilene_cost_network.node[4].content_store 	misses[4] 	53085
scalar abilene_cost_network.node[4].content_store 	decision_yes[4] 	668
scalar abilene_cost_network.node[4].content_store 	decision_no[4] 	52416
scalar abilene_cost_network.node[4].content_store 	decision_ratio[4] 	0.012583829402456
scalar abilene_cost_network.node[4].content_store 	correction_factor[4] 	0.0027225701061802
scalar abilene_cost_network.node[4].content_store 	xi[4] 	1
scalar abilene_cost_network.node[5].core_layer 	interests[5] 	180024
scalar abilene_cost_network.node[5].core_layer 	data[5] 	170235
scalar abilene_cost_network.node[5].content_store 	p_hit[5] 	0.037944940674577
scalar abilene_cost_network.node[5].content_store 	hits[5] 	6831
scalar abilene_cost_network.node[5].content_store 	misses[5] 	173193
scalar abilene_cost_network.node[5].content_store 	decision_yes[5] 	759
scalar abilene_cost_network.node[5].content_store 	decision_no[5] 	169476
scalar abilene_cost_network.node[5].content_store 	decision_ratio[5] 	0.0044585426028725
scalar abilene_cost_network.node[5].content_store 	correction_factor[5] 	0.0027225701061802
scalar abilene_cost_network.node[5].content_store 	xi[5] 	1
scalar abilene_cost_network.node[6].core_layer 	interests[6] 	107540
scalar abilene_cost_network.node[6].core_layer 	data[6] 	100214
scalar abilene_cost_network.node[6].content_store 	p_hit[6] 	0.06812348893435
scalar abilene_cost_network.node[6].content_store 	hits[6] 	7326
scalar abilene_cost_network.node[6].content_store 	misses[6] 	100214
scalar abilene_cost_network.node[6].content_store 	decision_yes[6] 	97
scalar abilene_cost_network.node[6].content_store 	decision_no[6] 	100117
scalar abilene_cost_network.node[6].content_store 	decision_ratio[6] 	0.00096792863272597
scalar abilene_cost_network.node[6].content_store 	correction_factor[6] 	0.0027225701061802
scalar abilene_cost_network.node[6].content_store 	xi[6] 	1
scalar abilene_cost_network.node[7].core_layer 	interests[7] 	319555
scalar abilene_cost_network.node[7].core_layer 	repo_load[7] 	91169
scalar abilene_cost_network.node[7].core_layer 	data[7] 	189344
scalar abilene_cost_network.node[7].content_store 	p_hit[7] 	0.11015631112015
scalar abilene_cost_network.node[7].content_store 	hits[7] 	35201
scalar abilene_cost_network.node[7].content_store 	misses[7] 	284354
scalar abilene_cost_network.node[7].content_store 	decision_yes[7] 	983
scalar abilene_cost_network.node[7].content_store 	decision_no[7] 	279530
scalar abilene_cost_network.node[7].content_store 	decision_ratio[7] 	0.0035042939186419
scalar abilene_cost_network.node[7].content_store 	correction_factor[7] 	0.0027225701061802
scalar abilene_cost_network.node[7].content_store 	xi[7] 	1
scalar abilene_cost_network.node[8].core_layer 	interests[8] 	252593
scalar abilene_cost_network.node[8].core_layer 	repo_load[8] 	188718
scalar abilene_cost_network.node[8].core_layer 	data[8] 	55815
scalar abilene_cost_network.node[8].content_store 	p_hit[8] 	0.031909039442898
scalar abilene_cost_network.node[8].content_store 	hits[8] 	8060
scalar abilene_cost_network.node[8].content_store 	misses[8] 	244533
scalar abilene_cost_network.node[8].content_store 	decision_yes[8] 	756
scalar abilene_cost_network.node[8].content_store 	decision_no[8] 	243777
scalar abilene_cost_network.node[8].content_store 	decision_ratio[8] 	0.0030916072677307
scalar abilene_cost_network.node[8].content_store 	correction_factor[8] 	0.0027225701061802
scalar abilene_cost_network.node[8].content_store 	xi[8] 	1
scalar abilene_cost_network.node[9].core_layer 	interests[9] 	55815
scalar abilene_cost_network.node[9].core_layer 	data[9] 	42095
scalar abilene_cost_network.node[9].content_store 	p_hit[9] 	0.24581205769058
scalar abilene_cost_network.node[9].content_store 	hits[9] 	13720
scalar abilene_cost_network.node[9].content_store 	misses[9] 	42095
scalar abilene_cost_network.node[9].content_store 	decision_yes[9] 	737
scalar abilene_cost_network.node[9].content_store 	decision_no[9] 	41358
scalar abilene_cost_network.node[9].content_store 	decision_ratio[9] 	0.017508017579285
scalar abilene_cost_network.node[9].content_store 	correction_factor[9] 	0.0027225701061802
scalar abilene_cost_network.node[9].content_store 	xi[9] 	1
scalar abilene_cost_network.node[10].core_layer 	interests[10] 	129374
scalar abilene_cost_network.node[10].core_layer 	repo_load[10] 	84599
scalar abilene_cost_network.node[10].core_layer 	data[10] 	0
scalar abilene_cost_network.node[10].content_store 	p_hit[10] 	0.34608963161068
scalar abilene_cost_network.node[10].content_store 	hits[10] 	44775
scalar abilene_cost_network.node[10].content_store 	misses[10] 	84599
scalar abilene_cost_network.node[10].content_store 	decision_yes[10] 	2281
scalar abilene_cost_network.node[10].content_store 	decision_no[10] 	82318
scalar abilene_cost_network.node[10].content_store 	decision_ratio[10] 	0.026962493646497
scalar abilene_cost_network.node[10].content_store 	correction_factor[10] 	0.0027225701061802
scalar abilene_cost_network.node[10].content_store 	xi[10] 	1
scalar abilene_cost_network.client[1] 	hdistance[1] 	2.4225736556265
scalar abilene_cost_network.client[1] 	downloads[1] 	177685
scalar abilene_cost_network.client[1] 	avg_time[1] 	0.011211650544
scalar abilene_cost_network.client[1] 	interests_sent[1] 	179775
scalar abilene_cost_network.client[5] 	hdistance[5] 	3.5396518812195
scalar abilene_cost_network.client[5] 	downloads[5] 	177066
scalar abilene_cost_network.client[5] 	avg_time[5] 	0.015103809608
scalar abilene_cost_network.client[5] 	interests_sent[5] 	180024
scalar abilene_cost_network.client[7] 	hdistance[7] 	1.9624611184461
scalar abilene_cost_network.client[7] 	downloads[7] 	178748
scalar abilene_cost_network.client[7] 	avg_time[7] 	0.010745271389
scalar abilene_cost_network.client[7] 	interests_sent[7] 	180986
