version 2
run General-0-20140904-10:48:52-27315
attr D costprobprodcorr0.01
attr F spr
attr R lru
attr a 1
attr configname General
attr csize 1e3
attr ctlg 1e5
attr datetime 20140904-10:48:52
attr experiment General
attr inifile omnetpp.ini
attr iterationvars "$net=abilene_cost, $rep=13, $priceratiovalue=10, $weights=0.333_0.333_0.334, $lambda=100, $a=1, $ctlg=1e5, $F=spr, $ttl=10, $D=costprobprodcorr0.01, $xi=1, $R=lru, $csize=1e3, $pricebits=0, $window=60, $variance=0.05, $mytime=1800"
attr iterationvars2 "$net=abilene_cost, $rep=13, $priceratiovalue=10, $weights=0.333_0.333_0.334, $lambda=100, $a=1, $ctlg=1e5, $F=spr, $ttl=10, $D=costprobprodcorr0.01, $xi=1, $R=lru, $csize=1e3, $pricebits=0, $window=60, $variance=0.05, $mytime=1800, $repetition=0"
attr lambda 100
attr measurement "$net=abilene_cost, $rep=13, $priceratiovalue=10, $weights=0.333_0.333_0.334, $lambda=100, $a=1, $ctlg=1e5, $F=spr, $ttl=10, $D=costprobprodcorr0.01, $xi=1, $R=lru, $csize=1e3, $pricebits=0, $window=60, $variance=0.05, $mytime=1800"
attr mytime 1800
attr net abilene_cost
attr network networks.${net=abilene_cost}_network
attr pricebits 0
attr priceratiovalue 10
attr processid 27315
attr rep 13
attr repetition 0
attr replication #0
attr resultdir results
attr runnumber 0
attr seedset 13
attr ttl 10
attr variance 0.05
attr weights 0.333_0.333_0.334
attr window 60
attr xi 1

scalar . 	a 	1
scalar . 	csize 	1e3
scalar . 	ctlg 	1e5
scalar . 	lambda 	100
scalar . 	mytime 	1800
scalar . 	pricebits 	0
scalar . 	priceratiovalue 	10
scalar . 	rep 	13
scalar . 	ttl 	10
scalar . 	variance 	0.05
scalar . 	window 	60
scalar . 	xi 	1
scalar abilene_cost_network.content_distribution 	repo-0 	6
scalar abilene_cost_network.content_distribution 	repo-1 	7
scalar abilene_cost_network.content_distribution 	repo-2 	5
scalar abilene_cost_network.content_distribution 	client-0 	8
scalar abilene_cost_network.content_distribution 	client-1 	2
scalar abilene_cost_network.content_distribution 	client-2 	1
scalar abilene_cost_network.content_distribution 	repo-0_card 	33148
scalar abilene_cost_network.content_distribution 	repo-0_price 	0
scalar abilene_cost_network.content_distribution 	repo-1_card 	33484
scalar abilene_cost_network.content_distribution 	repo-1_price 	1
scalar abilene_cost_network.content_distribution 	repo-2_card 	33368
scalar abilene_cost_network.content_distribution 	repo-2_price 	10
scalar abilene_cost_network.statistics 	repo_popularity[0] 	0.30980219785013
scalar abilene_cost_network.statistics 	repo_popularity[1] 	0.41260472724909
scalar abilene_cost_network.statistics 	repo_popularity[2] 	0.27759307490078
scalar abilene_cost_network.statistics 	stabilization_time 	36060
scalar abilene_cost_network.statistics 	p_hit 	0.10471985358688
scalar abilene_cost_network.statistics 	interests 	166155
scalar abilene_cost_network.statistics 	data 	117039.45454545
scalar abilene_cost_network.statistics 	hdistance 	3.0665410063015
scalar abilene_cost_network.statistics 	avg_time 	0.012865750313
scalar abilene_cost_network.statistics 	downloads 	533698
scalar abilene_cost_network.statistics 	total_cost 	898510
scalar abilene_cost_network.statistics 	total_replicas 	100000
scalar abilene_cost_network.statistics 	inner_hit 	0.36621647448557
scalar abilene_cost_network.statistics 	interests_sent 	540268
scalar abilene_cost_network.node[0].core_layer 	interests[0] 	0
scalar abilene_cost_network.node[0].core_layer 	data[0] 	0
scalar abilene_cost_network.node[0].core_layer 	repo_int[0] 	338249
scalar abilene_cost_network.node[0].content_store 	p_hit[0] 	-nan
scalar abilene_cost_network.node[0].content_store 	hits[0] 	0
scalar abilene_cost_network.node[0].content_store 	misses[0] 	0
scalar abilene_cost_network.node[0].content_store 	decision_yes[0] 	0
scalar abilene_cost_network.node[0].content_store 	decision_no[0] 	0
scalar abilene_cost_network.node[0].content_store 	decision_ratio[0] 	0
scalar abilene_cost_network.node[0].content_store 	correction_factor[0] 	0.0027225701061802
scalar abilene_cost_network.node[0].content_store 	xi[0] 	1
scalar abilene_cost_network.node[1].core_layer 	interests[1] 	180171
scalar abilene_cost_network.node[1].core_layer 	data[1] 	169639
scalar abilene_cost_network.node[1].content_store 	p_hit[1] 	0.041738126557548
scalar abilene_cost_network.node[1].content_store 	hits[1] 	7520
scalar abilene_cost_network.node[1].content_store 	misses[1] 	172651
scalar abilene_cost_network.node[1].content_store 	decision_yes[1] 	811
scalar abilene_cost_network.node[1].content_store 	decision_no[1] 	168828
scalar abilene_cost_network.node[1].content_store 	decision_ratio[1] 	0.0047807402778842
scalar abilene_cost_network.node[1].content_store 	correction_factor[1] 	0.0027225701061802
scalar abilene_cost_network.node[1].content_store 	xi[1] 	1
scalar abilene_cost_network.node[2].core_layer 	interests[2] 	349419
scalar abilene_cost_network.node[2].core_layer 	data[2] 	328548
scalar abilene_cost_network.node[2].content_store 	p_hit[2] 	0.044253460744836
scalar abilene_cost_network.node[2].content_store 	hits[2] 	15463
scalar abilene_cost_network.node[2].content_store 	misses[2] 	333956
scalar abilene_cost_network.node[2].content_store 	decision_yes[2] 	1612
scalar abilene_cost_network.node[2].content_store 	decision_no[2] 	326936
scalar abilene_cost_network.node[2].content_store 	decision_ratio[2] 	0.0049064368067984
scalar abilene_cost_network.node[2].content_store 	correction_factor[2] 	0.0027225701061802
scalar abilene_cost_network.node[2].content_store 	xi[2] 	1
scalar abilene_cost_network.node[3].core_layer 	interests[3] 	328549
scalar abilene_cost_network.node[3].core_layer 	data[3] 	313424
scalar abilene_cost_network.node[3].content_store 	p_hit[3] 	0.046029663764005
scalar abilene_cost_network.node[3].content_store 	hits[3] 	15123
scalar abilene_cost_network.node[3].content_store 	misses[3] 	313426
scalar abilene_cost_network.node[3].content_store 	decision_yes[3] 	1610
scalar abilene_cost_network.node[3].content_store 	decision_no[3] 	311814
scalar abilene_cost_network.node[3].content_store 	decision_ratio[3] 	0.0051368114758283
scalar abilene_cost_network.node[3].content_store 	correction_factor[3] 	0.0027225701061802
scalar abilene_cost_network.node[3].content_store 	xi[3] 	1
scalar abilene_cost_network.node[4].core_layer 	interests[4] 	75721
scalar abilene_cost_network.node[4].core_layer 	data[4] 	67866
scalar abilene_cost_network.node[4].content_store 	p_hit[4] 	0.10372287740521
scalar abilene_cost_network.node[4].content_store 	hits[4] 	7854
scalar abilene_cost_network.node[4].content_store 	misses[4] 	67867
scalar abilene_cost_network.node[4].content_store 	decision_yes[4] 	1415
scalar abilene_cost_network.node[4].content_store 	decision_no[4] 	66451
scalar abilene_cost_network.node[4].content_store 	decision_ratio[4] 	0.020849910116995
scalar abilene_cost_network.node[4].content_store 	correction_factor[4] 	0.0027225701061802
scalar abilene_cost_network.node[4].content_store 	xi[4] 	1
scalar abilene_cost_network.node[5].core_layer 	interests[5] 	103578
scalar abilene_cost_network.node[5].core_layer 	repo_load[5] 	80515
scalar abilene_cost_network.node[5].core_layer 	data[5] 	0
scalar abilene_cost_network.node[5].content_store 	p_hit[5] 	0.22266311378864
scalar abilene_cost_network.node[5].content_store 	hits[5] 	23063
scalar abilene_cost_network.node[5].content_store 	misses[5] 	80515
scalar abilene_cost_network.node[5].content_store 	decision_yes[5] 	2204
scalar abilene_cost_network.node[5].content_store 	decision_no[5] 	78311
scalar abilene_cost_network.node[5].content_store 	decision_ratio[5] 	0.027373781282991
scalar abilene_cost_network.node[5].content_store 	correction_factor[5] 	0.0027225701061802
scalar abilene_cost_network.node[5].content_store 	xi[5] 	1
scalar abilene_cost_network.node[6].core_layer 	interests[6] 	205737
scalar abilene_cost_network.node[6].core_layer 	repo_load[6] 	164374
scalar abilene_cost_network.node[6].core_layer 	data[6] 	35712
scalar abilene_cost_network.node[6].content_store 	p_hit[6] 	0.027467106062594
scalar abilene_cost_network.node[6].content_store 	hits[6] 	5651
scalar abilene_cost_network.node[6].content_store 	misses[6] 	200086
scalar abilene_cost_network.node[6].content_store 	decision_yes[6] 	732
scalar abilene_cost_network.node[6].content_store 	decision_no[6] 	199354
scalar abilene_cost_network.node[6].content_store 	decision_ratio[6] 	0.0036584268764431
scalar abilene_cost_network.node[6].content_store 	correction_factor[6] 	0.0027225701061802
scalar abilene_cost_network.node[6].content_store 	xi[6] 	1
scalar abilene_cost_network.node[7].core_layer 	interests[7] 	404211
scalar abilene_cost_network.node[7].core_layer 	repo_load[7] 	93360
scalar abilene_cost_network.node[7].core_layer 	data[7] 	205737
scalar abilene_cost_network.node[7].content_store 	p_hit[7] 	0.25860256153346
scalar abilene_cost_network.node[7].content_store 	hits[7] 	104530
scalar abilene_cost_network.node[7].content_store 	misses[7] 	299681
scalar abilene_cost_network.node[7].content_store 	decision_yes[7] 	971
scalar abilene_cost_network.node[7].content_store 	decision_no[7] 	298126
scalar abilene_cost_network.node[7].content_store 	decision_ratio[7] 	0.0032464384463903
scalar abilene_cost_network.node[7].content_store 	correction_factor[7] 	0.0027225701061802
scalar abilene_cost_network.node[7].content_store 	xi[7] 	1
scalar abilene_cost_network.node[8].core_layer 	interests[8] 	180319
scalar abilene_cost_network.node[8].core_layer 	data[8] 	166508
scalar abilene_cost_network.node[8].content_store 	p_hit[8] 	0.067619052900693
scalar abilene_cost_network.node[8].content_store 	hits[8] 	12193
scalar abilene_cost_network.node[8].content_store 	misses[8] 	168126
scalar abilene_cost_network.node[8].content_store 	decision_yes[8] 	796
scalar abilene_cost_network.node[8].content_store 	decision_no[8] 	165712
scalar abilene_cost_network.node[8].content_store 	decision_ratio[8] 	0.0047805510846326
scalar abilene_cost_network.node[8].content_store 	correction_factor[8] 	0.0027225701061802
scalar abilene_cost_network.node[8].content_store 	xi[8] 	1
scalar abilene_cost_network.node[9].core_layer 	interests[9] 	0
scalar abilene_cost_network.node[9].core_layer 	data[9] 	0
scalar abilene_cost_network.node[9].content_store 	p_hit[9] 	-nan
scalar abilene_cost_network.node[9].content_store 	hits[9] 	0
scalar abilene_cost_network.node[9].content_store 	misses[9] 	0
scalar abilene_cost_network.node[9].content_store 	decision_yes[9] 	0
scalar abilene_cost_network.node[9].content_store 	decision_no[9] 	0
scalar abilene_cost_network.node[9].content_store 	decision_ratio[9] 	0
scalar abilene_cost_network.node[9].content_store 	correction_factor[9] 	0.0027225701061802
scalar abilene_cost_network.node[9].content_store 	xi[9] 	1
scalar abilene_cost_network.node[10].core_layer 	interests[10] 	0
scalar abilene_cost_network.node[10].core_layer 	data[10] 	0
scalar abilene_cost_network.node[10].content_store 	p_hit[10] 	-nan
scalar abilene_cost_network.node[10].content_store 	hits[10] 	0
scalar abilene_cost_network.node[10].content_store 	misses[10] 	0
scalar abilene_cost_network.node[10].content_store 	decision_yes[10] 	0
scalar abilene_cost_network.node[10].content_store 	decision_no[10] 	0
scalar abilene_cost_network.node[10].content_store 	decision_ratio[10] 	0
scalar abilene_cost_network.node[10].content_store 	correction_factor[10] 	0.0027225701061802
scalar abilene_cost_network.node[10].content_store 	xi[10] 	1
scalar abilene_cost_network.client[1] 	hdistance[1] 	3.8940725562912
scalar abilene_cost_network.client[1] 	downloads[1] 	177159
scalar abilene_cost_network.client[1] 	avg_time[1] 	0.016731390906
scalar abilene_cost_network.client[1] 	interests_sent[1] 	180171
scalar abilene_cost_network.client[2] 	hdistance[2] 	2.9886132322676
scalar abilene_cost_network.client[2] 	downloads[2] 	177838
scalar abilene_cost_network.client[2] 	avg_time[2] 	0.011304717596
scalar abilene_cost_network.client[2] 	interests_sent[2] 	179778
scalar abilene_cost_network.client[8] 	hdistance[8] 	2.3169372303457
scalar abilene_cost_network.client[8] 	downloads[8] 	178701
scalar abilene_cost_network.client[8] 	avg_time[8] 	0.010561142437
scalar abilene_cost_network.client[8] 	interests_sent[8] 	180319
