version 2
run General-0-20140904-11:12:00-24373
attr D costprobprodcorr0.01
attr F spr
attr R lru
attr a 1
attr configname General
attr csize 1e3
attr ctlg 1e5
attr datetime 20140904-11:12:00
attr experiment General
attr inifile omnetpp.ini
attr iterationvars "$net=abilene_cost, $rep=1, $priceratiovalue=10, $weights=0.333_0.333_0.334, $lambda=100, $a=1, $ctlg=1e5, $F=spr, $ttl=10, $D=costprobprodcorr0.01, $xi=1, $R=lru, $csize=1e3, $pricebits=0, $window=60, $variance=0.05, $mytime=1800"
attr iterationvars2 "$net=abilene_cost, $rep=1, $priceratiovalue=10, $weights=0.333_0.333_0.334, $lambda=100, $a=1, $ctlg=1e5, $F=spr, $ttl=10, $D=costprobprodcorr0.01, $xi=1, $R=lru, $csize=1e3, $pricebits=0, $window=60, $variance=0.05, $mytime=1800, $repetition=0"
attr lambda 100
attr measurement "$net=abilene_cost, $rep=1, $priceratiovalue=10, $weights=0.333_0.333_0.334, $lambda=100, $a=1, $ctlg=1e5, $F=spr, $ttl=10, $D=costprobprodcorr0.01, $xi=1, $R=lru, $csize=1e3, $pricebits=0, $window=60, $variance=0.05, $mytime=1800"
attr mytime 1800
attr net abilene_cost
attr network networks.${net=abilene_cost}_network
attr pricebits 0
attr priceratiovalue 10
attr processid 24373
attr rep 1
attr repetition 0
attr replication #0
attr resultdir results
attr runnumber 0
attr seedset 1
attr ttl 10
attr variance 0.05
attr weights 0.333_0.333_0.334
attr window 60
attr xi 1

scalar . 	a 	1
scalar . 	csize 	1e3
scalar . 	ctlg 	1e5
scalar . 	lambda 	100
scalar . 	mytime 	1800
scalar . 	pricebits 	0
scalar . 	priceratiovalue 	10
scalar . 	rep 	1
scalar . 	ttl 	10
scalar . 	variance 	0.05
scalar . 	window 	60
scalar . 	xi 	1
scalar abilene_cost_network.content_distribution 	repo-0 	10
scalar abilene_cost_network.content_distribution 	repo-1 	7
scalar abilene_cost_network.content_distribution 	repo-2 	5
scalar abilene_cost_network.content_distribution 	client-0 	8
scalar abilene_cost_network.content_distribution 	client-1 	7
scalar abilene_cost_network.content_distribution 	client-2 	2
scalar abilene_cost_network.content_distribution 	repo-0_card 	33397
scalar abilene_cost_network.content_distribution 	repo-0_price 	0
scalar abilene_cost_network.content_distribution 	repo-1_card 	33041
scalar abilene_cost_network.content_distribution 	repo-1_price 	10
scalar abilene_cost_network.content_distribution 	repo-2_card 	33562
scalar abilene_cost_network.content_distribution 	repo-2_price 	1
scalar abilene_cost_network.statistics 	repo_popularity[0] 	0.36106327575467
scalar abilene_cost_network.statistics 	repo_popularity[1] 	0.3490006524958
scalar abilene_cost_network.statistics 	repo_popularity[2] 	0.28993607174955
scalar abilene_cost_network.statistics 	stabilization_time 	36060
scalar abilene_cost_network.statistics 	p_hit 	0.11664359309314
scalar abilene_cost_network.statistics 	interests 	132711.18181818
scalar abilene_cost_network.statistics 	data 	83634.181818182
scalar abilene_cost_network.statistics 	hdistance 	2.4066878946904
scalar abilene_cost_network.statistics 	avg_time 	0.011630198312
scalar abilene_cost_network.statistics 	downloads 	535428
scalar abilene_cost_network.statistics 	total_cost 	987978
scalar abilene_cost_network.statistics 	total_replicas 	100000
scalar abilene_cost_network.statistics 	inner_hit 	0.32171085561457
scalar abilene_cost_network.statistics 	interests_sent 	539850
scalar abilene_cost_network.node[0].core_layer 	interests[0] 	0
scalar abilene_cost_network.node[0].core_layer 	data[0] 	0
scalar abilene_cost_network.node[0].core_layer 	repo_int[0] 	363175
scalar abilene_cost_network.node[0].content_store 	p_hit[0] 	-nan
scalar abilene_cost_network.node[0].content_store 	hits[0] 	0
scalar abilene_cost_network.node[0].content_store 	misses[0] 	0
scalar abilene_cost_network.node[0].content_store 	decision_yes[0] 	0
scalar abilene_cost_network.node[0].content_store 	decision_no[0] 	0
scalar abilene_cost_network.node[0].content_store 	decision_ratio[0] 	0
scalar abilene_cost_network.node[0].content_store 	correction_factor[0] 	0.0027225701061802
scalar abilene_cost_network.node[0].content_store 	xi[0] 	1
scalar abilene_cost_network.node[1].core_layer 	interests[1] 	64393
scalar abilene_cost_network.node[1].core_layer 	data[1] 	64393
scalar abilene_cost_network.node[1].content_store 	p_hit[1] 	0
scalar abilene_cost_network.node[1].content_store 	hits[1] 	0
scalar abilene_cost_network.node[1].content_store 	misses[1] 	64393
scalar abilene_cost_network.node[1].content_store 	decision_yes[1] 	0
scalar abilene_cost_network.node[1].content_store 	decision_no[1] 	64393
scalar abilene_cost_network.node[1].content_store 	decision_ratio[1] 	0
scalar abilene_cost_network.node[1].content_store 	correction_factor[1] 	0.0027225701061802
scalar abilene_cost_network.node[1].content_store 	xi[1] 	1
scalar abilene_cost_network.node[2].core_layer 	interests[2] 	180760
scalar abilene_cost_network.node[2].core_layer 	data[2] 	152421
scalar abilene_cost_network.node[2].content_store 	p_hit[2] 	0.15115622925426
scalar abilene_cost_network.node[2].content_store 	hits[2] 	27323
scalar abilene_cost_network.node[2].content_store 	misses[2] 	153437
scalar abilene_cost_network.node[2].content_store 	decision_yes[2] 	849
scalar abilene_cost_network.node[2].content_store 	decision_no[2] 	151572
scalar abilene_cost_network.node[2].content_store 	decision_ratio[2] 	0.0055700986084595
scalar abilene_cost_network.node[2].content_store 	correction_factor[2] 	0.0027225701061802
scalar abilene_cost_network.node[2].content_store 	xi[2] 	1
scalar abilene_cost_network.node[3].core_layer 	interests[3] 	88027
scalar abilene_cost_network.node[3].core_layer 	data[3] 	81548
scalar abilene_cost_network.node[3].content_store 	p_hit[3] 	0.073602417440104
scalar abilene_cost_network.node[3].content_store 	hits[3] 	6479
scalar abilene_cost_network.node[3].content_store 	misses[3] 	81548
scalar abilene_cost_network.node[3].content_store 	decision_yes[3] 	801
scalar abilene_cost_network.node[3].content_store 	decision_no[3] 	80747
scalar abilene_cost_network.node[3].content_store 	decision_ratio[3] 	0.009822435865993
scalar abilene_cost_network.node[3].content_store 	correction_factor[3] 	0.0027225701061802
scalar abilene_cost_network.node[3].content_store 	xi[3] 	1
scalar abilene_cost_network.node[4].core_layer 	interests[4] 	44493
scalar abilene_cost_network.node[4].core_layer 	data[4] 	35749
scalar abilene_cost_network.node[4].content_store 	p_hit[4] 	0.196525296114
scalar abilene_cost_network.node[4].content_store 	hits[4] 	8744
scalar abilene_cost_network.node[4].content_store 	misses[4] 	35749
scalar abilene_cost_network.node[4].content_store 	decision_yes[4] 	72
scalar abilene_cost_network.node[4].content_store 	decision_no[4] 	35677
scalar abilene_cost_network.node[4].content_store 	decision_ratio[4] 	0.002014042350835
scalar abilene_cost_network.node[4].content_store 	correction_factor[4] 	0.0027225701061802
scalar abilene_cost_network.node[4].content_store 	xi[4] 	1
scalar abilene_cost_network.node[5].core_layer 	interests[5] 	108422
scalar abilene_cost_network.node[5].core_layer 	repo_load[5] 	82518
scalar abilene_cost_network.node[5].core_layer 	data[5] 	0
scalar abilene_cost_network.node[5].content_store 	p_hit[5] 	0.23891830071388
scalar abilene_cost_network.node[5].content_store 	hits[5] 	25904
scalar abilene_cost_network.node[5].content_store 	misses[5] 	82518
scalar abilene_cost_network.node[5].content_store 	decision_yes[5] 	207
scalar abilene_cost_network.node[5].content_store 	decision_no[5] 	82311
scalar abilene_cost_network.node[5].content_store 	decision_ratio[5] 	0.0025085435904893
scalar abilene_cost_network.node[5].content_store 	correction_factor[5] 	0.0027225701061802
scalar abilene_cost_network.node[5].content_store 	xi[5] 	1
scalar abilene_cost_network.node[6].core_layer 	interests[6] 	95978
scalar abilene_cost_network.node[6].core_layer 	data[6] 	72673
scalar abilene_cost_network.node[6].content_store 	p_hit[6] 	0.24281606201421
scalar abilene_cost_network.node[6].content_store 	hits[6] 	23305
scalar abilene_cost_network.node[6].content_store 	misses[6] 	72673
scalar abilene_cost_network.node[6].content_store 	decision_yes[6] 	141
scalar abilene_cost_network.node[6].content_store 	decision_no[6] 	72532
scalar abilene_cost_network.node[6].content_store 	decision_ratio[6] 	0.0019401978726625
scalar abilene_cost_network.node[6].content_store 	correction_factor[6] 	0.0027225701061802
scalar abilene_cost_network.node[6].content_store 	xi[6] 	1
scalar abilene_cost_network.node[7].core_layer 	interests[7] 	318521
scalar abilene_cost_network.node[7].core_layer 	repo_load[7] 	90546
scalar abilene_cost_network.node[7].core_layer 	data[7] 	159784
scalar abilene_cost_network.node[7].content_store 	p_hit[7] 	0.20920127715284
scalar abilene_cost_network.node[7].content_store 	hits[7] 	66635
scalar abilene_cost_network.node[7].content_store 	misses[7] 	251886
scalar abilene_cost_network.node[7].content_store 	decision_yes[7] 	2626
scalar abilene_cost_network.node[7].content_store 	decision_no[7] 	247704
scalar abilene_cost_network.node[7].content_store 	decision_ratio[7] 	0.010490152998043
scalar abilene_cost_network.node[7].content_store 	correction_factor[7] 	0.0027225701061802
scalar abilene_cost_network.node[7].content_store 	xi[7] 	1
scalar abilene_cost_network.node[8].core_layer 	interests[8] 	243401
scalar abilene_cost_network.node[8].core_layer 	data[8] 	227691
scalar abilene_cost_network.node[8].content_store 	p_hit[8] 	0.048845321095641
scalar abilene_cost_network.node[8].content_store 	hits[8] 	11889
scalar abilene_cost_network.node[8].content_store 	misses[8] 	231512
scalar abilene_cost_network.node[8].content_store 	decision_yes[8] 	888
scalar abilene_cost_network.node[8].content_store 	decision_no[8] 	226803
scalar abilene_cost_network.node[8].content_store 	decision_ratio[8] 	0.0039000223987773
scalar abilene_cost_network.node[8].content_store 	correction_factor[8] 	0.0027225701061802
scalar abilene_cost_network.node[8].content_store 	xi[8] 	1
scalar abilene_cost_network.node[9].core_layer 	interests[9] 	125717
scalar abilene_cost_network.node[9].core_layer 	data[9] 	125717
scalar abilene_cost_network.node[9].content_store 	p_hit[9] 	0
scalar abilene_cost_network.node[9].content_store 	hits[9] 	0
scalar abilene_cost_network.node[9].content_store 	misses[9] 	125717
scalar abilene_cost_network.node[9].content_store 	decision_yes[9] 	0
scalar abilene_cost_network.node[9].content_store 	decision_no[9] 	125717
scalar abilene_cost_network.node[9].content_store 	decision_ratio[9] 	0
scalar abilene_cost_network.node[9].content_store 	correction_factor[9] 	0.0027225701061802
scalar abilene_cost_network.node[9].content_store 	xi[9] 	1
scalar abilene_cost_network.node[10].core_layer 	interests[10] 	190111
scalar abilene_cost_network.node[10].core_layer 	repo_load[10] 	190111
scalar abilene_cost_network.node[10].core_layer 	data[10] 	0
scalar abilene_cost_network.node[10].content_store 	p_hit[10] 	0
scalar abilene_cost_network.node[10].content_store 	hits[10] 	0
scalar abilene_cost_network.node[10].content_store 	misses[10] 	190111
scalar abilene_cost_network.node[10].content_store 	decision_yes[10] 	0
scalar abilene_cost_network.node[10].content_store 	decision_no[10] 	190111
scalar abilene_cost_network.node[10].content_store 	decision_ratio[10] 	0
scalar abilene_cost_network.node[10].content_store 	correction_factor[10] 	0.0027225701061802
scalar abilene_cost_network.node[10].content_store 	xi[10] 	1
scalar abilene_cost_network.client[2] 	hdistance[2] 	2.5257199127648
scalar abilene_cost_network.client[2] 	downloads[2] 	179744
scalar abilene_cost_network.client[2] 	avg_time[2] 	0.011002609837
scalar abilene_cost_network.client[2] 	interests_sent[2] 	180760
scalar abilene_cost_network.client[7] 	hdistance[7] 	2.2672427831029
scalar abilene_cost_network.client[7] 	downloads[7] 	178089
scalar abilene_cost_network.client[7] 	avg_time[7] 	0.01124229294
scalar abilene_cost_network.client[7] 	interests_sent[7] 	179494
scalar abilene_cost_network.client[8] 	hdistance[8] 	2.4271009882035
scalar abilene_cost_network.client[8] 	downloads[8] 	177595
scalar abilene_cost_network.client[8] 	avg_time[8] 	0.012645692161
scalar abilene_cost_network.client[8] 	interests_sent[8] 	179596
