version 2
run General-4-20140904-11:12:00-24377
attr D costprobprodcorr0.01
attr F spr
attr R lru
attr a 1
attr configname General
attr csize 1e3
attr ctlg 1e5
attr datetime 20140904-11:12:00
attr experiment General
attr inifile omnetpp.ini
attr iterationvars "$net=abilene_cost, $rep=2, $priceratiovalue=10, $weights=0.333_0.333_0.334, $lambda=100, $a=1, $ctlg=1e5, $F=spr, $ttl=10, $D=costprobprodcorr0.01, $xi=1, $R=lru, $csize=1e3, $pricebits=0, $window=60, $variance=0.05, $mytime=1800"
attr iterationvars2 "$net=abilene_cost, $rep=2, $priceratiovalue=10, $weights=0.333_0.333_0.334, $lambda=100, $a=1, $ctlg=1e5, $F=spr, $ttl=10, $D=costprobprodcorr0.01, $xi=1, $R=lru, $csize=1e3, $pricebits=0, $window=60, $variance=0.05, $mytime=1800, $repetition=0"
attr lambda 100
attr measurement "$net=abilene_cost, $rep=2, $priceratiovalue=10, $weights=0.333_0.333_0.334, $lambda=100, $a=1, $ctlg=1e5, $F=spr, $ttl=10, $D=costprobprodcorr0.01, $xi=1, $R=lru, $csize=1e3, $pricebits=0, $window=60, $variance=0.05, $mytime=1800"
attr mytime 1800
attr net abilene_cost
attr network networks.${net=abilene_cost}_network
attr pricebits 0
attr priceratiovalue 10
attr processid 24377
attr rep 2
attr repetition 0
attr replication #0
attr resultdir results
attr runnumber 4
attr seedset 2
attr ttl 10
attr variance 0.05
attr weights 0.333_0.333_0.334
attr window 60
attr xi 1

scalar . 	a 	1
scalar . 	csize 	1e3
scalar . 	ctlg 	1e5
scalar . 	lambda 	100
scalar . 	mytime 	1800
scalar . 	pricebits 	0
scalar . 	priceratiovalue 	10
scalar . 	rep 	2
scalar . 	ttl 	10
scalar . 	variance 	0.05
scalar . 	window 	60
scalar . 	xi 	1
scalar abilene_cost_network.content_distribution 	repo-0 	4
scalar abilene_cost_network.content_distribution 	repo-1 	9
scalar abilene_cost_network.content_distribution 	repo-2 	6
scalar abilene_cost_network.content_distribution 	client-0 	3
scalar abilene_cost_network.content_distribution 	client-1 	7
scalar abilene_cost_network.content_distribution 	client-2 	9
scalar abilene_cost_network.content_distribution 	repo-0_card 	33329
scalar abilene_cost_network.content_distribution 	repo-0_price 	1
scalar abilene_cost_network.content_distribution 	repo-1_card 	33052
scalar abilene_cost_network.content_distribution 	repo-1_price 	10
scalar abilene_cost_network.content_distribution 	repo-2_card 	33619
scalar abilene_cost_network.content_distribution 	repo-2_price 	0
scalar abilene_cost_network.statistics 	repo_popularity[0] 	0.33984204835506
scalar abilene_cost_network.statistics 	repo_popularity[1] 	0.39407385110283
scalar abilene_cost_network.statistics 	repo_popularity[2] 	0.26608410054213
scalar abilene_cost_network.statistics 	stabilization_time 	36060
scalar abilene_cost_network.statistics 	p_hit 	0.15035059368489
scalar abilene_cost_network.statistics 	interests 	131413.45454545
scalar abilene_cost_network.statistics 	data 	82330.272727273
scalar abilene_cost_network.statistics 	hdistance 	2.2850829356244
scalar abilene_cost_network.statistics 	avg_time 	0.011915751764
scalar abilene_cost_network.statistics 	downloads 	536108
scalar abilene_cost_network.statistics 	total_cost 	994229
scalar abilene_cost_network.statistics 	total_replicas 	100000
scalar abilene_cost_network.statistics 	inner_hit 	0.40717355458229
scalar abilene_cost_network.statistics 	interests_sent 	539914
scalar abilene_cost_network.node[0].core_layer 	interests[0] 	0
scalar abilene_cost_network.node[0].core_layer 	data[0] 	0
scalar abilene_cost_network.node[0].core_layer 	repo_int[0] 	317819
scalar abilene_cost_network.node[0].content_store 	p_hit[0] 	-nan
scalar abilene_cost_network.node[0].content_store 	hits[0] 	0
scalar abilene_cost_network.node[0].content_store 	misses[0] 	0
scalar abilene_cost_network.node[0].content_store 	decision_yes[0] 	0
scalar abilene_cost_network.node[0].content_store 	decision_no[0] 	0
scalar abilene_cost_network.node[0].content_store 	decision_ratio[0] 	0
scalar abilene_cost_network.node[0].content_store 	correction_factor[0] 	0.0027225701061802
scalar abilene_cost_network.node[0].content_store 	xi[0] 	1
scalar abilene_cost_network.node[1].core_layer 	interests[1] 	0
scalar abilene_cost_network.node[1].core_layer 	data[1] 	0
scalar abilene_cost_network.node[1].content_store 	p_hit[1] 	-nan
scalar abilene_cost_network.node[1].content_store 	hits[1] 	0
scalar abilene_cost_network.node[1].content_store 	misses[1] 	0
scalar abilene_cost_network.node[1].content_store 	decision_yes[1] 	0
scalar abilene_cost_network.node[1].content_store 	decision_no[1] 	0
scalar abilene_cost_network.node[1].content_store 	decision_ratio[1] 	0
scalar abilene_cost_network.node[1].content_store 	correction_factor[1] 	0.0027225701061802
scalar abilene_cost_network.node[1].content_store 	xi[1] 	1
scalar abilene_cost_network.node[2].core_layer 	interests[2] 	122463
scalar abilene_cost_network.node[2].core_layer 	data[2] 	115293
scalar abilene_cost_network.node[2].content_store 	p_hit[2] 	0.058540130488392
scalar abilene_cost_network.node[2].content_store 	hits[2] 	7169
scalar abilene_cost_network.node[2].content_store 	misses[2] 	115294
scalar abilene_cost_network.node[2].content_store 	decision_yes[2] 	824
scalar abilene_cost_network.node[2].content_store 	decision_no[2] 	114469
scalar abilene_cost_network.node[2].content_store 	decision_ratio[2] 	0.0071470080577312
scalar abilene_cost_network.node[2].content_store 	correction_factor[2] 	0.0027225701061802
scalar abilene_cost_network.node[2].content_store 	xi[2] 	1
scalar abilene_cost_network.node[3].core_layer 	interests[3] 	295181
scalar abilene_cost_network.node[3].core_layer 	data[3] 	252369
scalar abilene_cost_network.node[3].content_store 	p_hit[3] 	0.13760031980378
scalar abilene_cost_network.node[3].content_store 	hits[3] 	40617
scalar abilene_cost_network.node[3].content_store 	misses[3] 	254564
scalar abilene_cost_network.node[3].content_store 	decision_yes[3] 	988
scalar abilene_cost_network.node[3].content_store 	decision_no[3] 	251381
scalar abilene_cost_network.node[3].content_store 	decision_ratio[3] 	0.0039149023849997
scalar abilene_cost_network.node[3].content_store 	correction_factor[3] 	0.0027225701061802
scalar abilene_cost_network.node[3].content_store 	xi[3] 	1
scalar abilene_cost_network.node[4].core_layer 	interests[4] 	141475
scalar abilene_cost_network.node[4].core_layer 	repo_load[4] 	84149
scalar abilene_cost_network.node[4].core_layer 	data[4] 	0
scalar abilene_cost_network.node[4].content_store 	p_hit[4] 	0.40520233256759
scalar abilene_cost_network.node[4].content_store 	hits[4] 	57326
scalar abilene_cost_network.node[4].content_store 	misses[4] 	84149
scalar abilene_cost_network.node[4].content_store 	decision_yes[4] 	250
scalar abilene_cost_network.node[4].content_store 	decision_no[4] 	83899
scalar abilene_cost_network.node[4].content_store 	decision_ratio[4] 	0.0029709206288845
scalar abilene_cost_network.node[4].content_store 	correction_factor[4] 	0.0027225701061802
scalar abilene_cost_network.node[4].content_store 	xi[4] 	1
scalar abilene_cost_network.node[5].core_layer 	interests[5] 	0
scalar abilene_cost_network.node[5].core_layer 	data[5] 	0
scalar abilene_cost_network.node[5].content_store 	p_hit[5] 	-nan
scalar abilene_cost_network.node[5].content_store 	hits[5] 	0
scalar abilene_cost_network.node[5].content_store 	misses[5] 	0
scalar abilene_cost_network.node[5].content_store 	decision_yes[5] 	0
scalar abilene_cost_network.node[5].content_store 	decision_no[5] 	0
scalar abilene_cost_network.node[5].content_store 	decision_ratio[5] 	0
scalar abilene_cost_network.node[5].content_store 	correction_factor[5] 	0.0027225701061802
scalar abilene_cost_network.node[5].content_store 	xi[5] 	1
scalar abilene_cost_network.node[6].core_layer 	interests[6] 	142662
scalar abilene_cost_network.node[6].core_layer 	repo_load[6] 	142662
scalar abilene_cost_network.node[6].core_layer 	data[6] 	0
scalar abilene_cost_network.node[6].content_store 	p_hit[6] 	0
scalar abilene_cost_network.node[6].content_store 	hits[6] 	0
scalar abilene_cost_network.node[6].content_store 	misses[6] 	142662
scalar abilene_cost_network.node[6].content_store 	decision_yes[6] 	0
scalar abilene_cost_network.node[6].content_store 	decision_no[6] 	142662
scalar abilene_cost_network.node[6].content_store 	decision_ratio[6] 	0
scalar abilene_cost_network.node[6].content_store 	correction_factor[6] 	0.0027225701061802
scalar abilene_cost_network.node[6].content_store 	xi[6] 	1
scalar abilene_cost_network.node[7].core_layer 	interests[7] 	275357
scalar abilene_cost_network.node[7].core_layer 	data[7] 	246418
scalar abilene_cost_network.node[7].content_store 	p_hit[7] 	0.10209291937376
scalar abilene_cost_network.node[7].content_store 	hits[7] 	28112
scalar abilene_cost_network.node[7].content_store 	misses[7] 	247245
scalar abilene_cost_network.node[7].content_store 	decision_yes[7] 	820
scalar abilene_cost_network.node[7].content_store 	decision_no[7] 	245598
scalar abilene_cost_network.node[7].content_store 	decision_ratio[7] 	0.0033276789844898
scalar abilene_cost_network.node[7].content_store 	correction_factor[7] 	0.0027225701061802
scalar abilene_cost_network.node[7].content_store 	xi[7] 	1
scalar abilene_cost_network.node[8].core_layer 	interests[8] 	210306
scalar abilene_cost_network.node[8].core_layer 	data[8] 	184918
scalar abilene_cost_network.node[8].content_store 	p_hit[8] 	0.11882209732485
scalar abilene_cost_network.node[8].content_store 	hits[8] 	24989
scalar abilene_cost_network.node[8].content_store 	misses[8] 	185317
scalar abilene_cost_network.node[8].content_store 	decision_yes[8] 	1627
scalar abilene_cost_network.node[8].content_store 	decision_no[8] 	183291
scalar abilene_cost_network.node[8].content_store 	decision_ratio[8] 	0.0087984944678182
scalar abilene_cost_network.node[8].content_store 	correction_factor[8] 	0.0027225701061802
scalar abilene_cost_network.node[8].content_store 	xi[8] 	1
scalar abilene_cost_network.node[9].core_layer 	interests[9] 	258104
scalar abilene_cost_network.node[9].core_layer 	repo_load[9] 	91008
scalar abilene_cost_network.node[9].core_layer 	data[9] 	106635
scalar abilene_cost_network.node[9].content_store 	p_hit[9] 	0.22907820103524
scalar abilene_cost_network.node[9].content_store 	hits[9] 	59126
scalar abilene_cost_network.node[9].content_store 	misses[9] 	198978
scalar abilene_cost_network.node[9].content_store 	decision_yes[9] 	2528
scalar abilene_cost_network.node[9].content_store 	decision_no[9] 	195115
scalar abilene_cost_network.node[9].content_store 	decision_ratio[9] 	0.012790738857435
scalar abilene_cost_network.node[9].content_store 	correction_factor[9] 	0.0027225701061802
scalar abilene_cost_network.node[9].content_store 	xi[9] 	1
scalar abilene_cost_network.node[10].core_layer 	interests[10] 	0
scalar abilene_cost_network.node[10].core_layer 	data[10] 	0
scalar abilene_cost_network.node[10].content_store 	p_hit[10] 	-nan
scalar abilene_cost_network.node[10].content_store 	hits[10] 	0
scalar abilene_cost_network.node[10].content_store 	misses[10] 	0
scalar abilene_cost_network.node[10].content_store 	decision_yes[10] 	0
scalar abilene_cost_network.node[10].content_store 	decision_no[10] 	0
scalar abilene_cost_network.node[10].content_store 	decision_ratio[10] 	0
scalar abilene_cost_network.node[10].content_store 	correction_factor[10] 	0.0027225701061802
scalar abilene_cost_network.node[10].content_store 	xi[10] 	1
scalar abilene_cost_network.client[3] 	hdistance[3] 	2.2730383673102
scalar abilene_cost_network.client[3] 	downloads[3] 	177964
scalar abilene_cost_network.client[3] 	avg_time[3] 	0.01035440445
scalar abilene_cost_network.client[3] 	interests_sent[3] 	179803
scalar abilene_cost_network.client[7] 	hdistance[7] 	1.9111151923955
scalar abilene_cost_network.client[7] 	downloads[7] 	179682
scalar abilene_cost_network.client[7] 	avg_time[7] 	0.008703552911
scalar abilene_cost_network.client[7] 	interests_sent[7] 	180314
scalar abilene_cost_network.client[9] 	hdistance[9] 	2.6710952471675
scalar abilene_cost_network.client[9] 	downloads[9] 	178462
scalar abilene_cost_network.client[9] 	avg_time[9] 	0.016689297932
scalar abilene_cost_network.client[9] 	interests_sent[9] 	179797
