version 2
run General-4-20140904-10:48:52-27319
attr D costprobprodcorr0.01
attr F spr
attr R lru
attr a 1
attr configname General
attr csize 1e3
attr ctlg 1e5
attr datetime 20140904-10:48:52
attr experiment General
attr inifile omnetpp.ini
attr iterationvars "$net=abilene_cost, $rep=14, $priceratiovalue=10, $weights=0.333_0.333_0.334, $lambda=100, $a=1, $ctlg=1e5, $F=spr, $ttl=10, $D=costprobprodcorr0.01, $xi=1, $R=lru, $csize=1e3, $pricebits=0, $window=60, $variance=0.05, $mytime=1800"
attr iterationvars2 "$net=abilene_cost, $rep=14, $priceratiovalue=10, $weights=0.333_0.333_0.334, $lambda=100, $a=1, $ctlg=1e5, $F=spr, $ttl=10, $D=costprobprodcorr0.01, $xi=1, $R=lru, $csize=1e3, $pricebits=0, $window=60, $variance=0.05, $mytime=1800, $repetition=0"
attr lambda 100
attr measurement "$net=abilene_cost, $rep=14, $priceratiovalue=10, $weights=0.333_0.333_0.334, $lambda=100, $a=1, $ctlg=1e5, $F=spr, $ttl=10, $D=costprobprodcorr0.01, $xi=1, $R=lru, $csize=1e3, $pricebits=0, $window=60, $variance=0.05, $mytime=1800"
attr mytime 1800
attr net abilene_cost
attr network networks.${net=abilene_cost}_network
attr pricebits 0
attr priceratiovalue 10
attr processid 27319
attr rep 14
attr repetition 0
attr replication #0
attr resultdir results
attr runnumber 4
attr seedset 14
attr ttl 10
attr variance 0.05
attr weights 0.333_0.333_0.334
attr window 60
attr xi 1

scalar . 	a 	1
scalar . 	csize 	1e3
scalar . 	ctlg 	1e5
scalar . 	lambda 	100
scalar . 	mytime 	1800
scalar . 	pricebits 	0
scalar . 	priceratiovalue 	10
scalar . 	rep 	14
scalar . 	ttl 	10
scalar . 	variance 	0.05
scalar . 	window 	60
scalar . 	xi 	1
scalar abilene_cost_network.content_distribution 	repo-0 	4
scalar abilene_cost_network.content_distribution 	repo-1 	0
scalar abilene_cost_network.content_distribution 	repo-2 	1
scalar abilene_cost_network.content_distribution 	client-0 	10
scalar abilene_cost_network.content_distribution 	client-1 	0
scalar abilene_cost_network.content_distribution 	client-2 	3
scalar abilene_cost_network.content_distribution 	repo-0_card 	32960
scalar abilene_cost_network.content_distribution 	repo-0_price 	10
scalar abilene_cost_network.content_distribution 	repo-1_card 	33557
scalar abilene_cost_network.content_distribution 	repo-1_price 	1
scalar abilene_cost_network.content_distribution 	repo-2_card 	33483
scalar abilene_cost_network.content_distribution 	repo-2_price 	0
scalar abilene_cost_network.statistics 	repo_popularity[0] 	0.37649694892447
scalar abilene_cost_network.statistics 	repo_popularity[1] 	0.27930561233564
scalar abilene_cost_network.statistics 	repo_popularity[2] 	0.3441974387399
scalar abilene_cost_network.statistics 	stabilization_time 	36060
scalar abilene_cost_network.statistics 	p_hit 	0.12435396047157
scalar abilene_cost_network.statistics 	interests 	128105.72727273
scalar abilene_cost_network.statistics 	data 	78995.090909091
scalar abilene_cost_network.statistics 	hdistance 	2.2991103890894
scalar abilene_cost_network.statistics 	avg_time 	0.010972148607
scalar abilene_cost_network.statistics 	downloads 	534126
scalar abilene_cost_network.statistics 	total_cost 	909081
scalar abilene_cost_network.statistics 	total_replicas 	100000
scalar abilene_cost_network.statistics 	inner_hit 	0.33087136743016
scalar abilene_cost_network.statistics 	interests_sent 	540220
scalar abilene_cost_network.node[0].core_layer 	interests[0] 	267161
scalar abilene_cost_network.node[0].core_layer 	repo_load[0] 	91661
scalar abilene_cost_network.node[0].core_layer 	data[0] 	126653
scalar abilene_cost_network.node[0].core_layer 	repo_int[0] 	357399
scalar abilene_cost_network.node[0].content_store 	p_hit[0] 	0.1726187579774
scalar abilene_cost_network.node[0].content_store 	hits[0] 	46117
scalar abilene_cost_network.node[0].content_store 	misses[0] 	221044
scalar abilene_cost_network.node[0].content_store 	decision_yes[0] 	970
scalar abilene_cost_network.node[0].content_store 	decision_no[0] 	217344
scalar abilene_cost_network.node[0].content_store 	decision_ratio[0] 	0.0044431415300897
scalar abilene_cost_network.node[0].content_store 	correction_factor[0] 	0.0027225701061802
scalar abilene_cost_network.node[0].content_store 	xi[0] 	1
scalar abilene_cost_network.node[1].core_layer 	interests[1] 	355344
scalar abilene_cost_network.node[1].core_layer 	repo_load[1] 	183996
scalar abilene_cost_network.node[1].core_layer 	data[1] 	155751
scalar abilene_cost_network.node[1].content_store 	p_hit[1] 	0.039814939889234
scalar abilene_cost_network.node[1].content_store 	hits[1] 	14148
scalar abilene_cost_network.node[1].content_store 	misses[1] 	341196
scalar abilene_cost_network.node[1].content_store 	decision_yes[1] 	1522
scalar abilene_cost_network.node[1].content_store 	decision_no[1] 	338225
scalar abilene_cost_network.node[1].content_store 	decision_ratio[1] 	0.0044798040895137
scalar abilene_cost_network.node[1].content_store 	correction_factor[1] 	0.0027225701061802
scalar abilene_cost_network.node[1].content_store 	xi[1] 	1
scalar abilene_cost_network.node[2].core_layer 	interests[2] 	222337
scalar abilene_cost_network.node[2].core_layer 	data[2] 	187652
scalar abilene_cost_network.node[2].content_store 	p_hit[2] 	0.15601092035963
scalar abilene_cost_network.node[2].content_store 	hits[2] 	34687
scalar abilene_cost_network.node[2].content_store 	misses[2] 	187650
scalar abilene_cost_network.node[2].content_store 	decision_yes[2] 	1522
scalar abilene_cost_network.node[2].content_store 	decision_no[2] 	186130
scalar abilene_cost_network.node[2].content_store 	decision_ratio[2] 	0.0081107582120095
scalar abilene_cost_network.node[2].content_store 	correction_factor[2] 	0.0027225701061802
scalar abilene_cost_network.node[2].content_store 	xi[2] 	1
scalar abilene_cost_network.node[3].core_layer 	interests[3] 	261387
scalar abilene_cost_network.node[3].core_layer 	data[3] 	232770
scalar abilene_cost_network.node[3].content_store 	p_hit[3] 	0.1058927949745
scalar abilene_cost_network.node[3].content_store 	hits[3] 	27679
scalar abilene_cost_network.node[3].content_store 	misses[3] 	233708
scalar abilene_cost_network.node[3].content_store 	decision_yes[3] 	2335
scalar abilene_cost_network.node[3].content_store 	decision_no[3] 	230435
scalar abilene_cost_network.node[3].content_store 	decision_ratio[3] 	0.010031361429738
scalar abilene_cost_network.node[3].content_store 	correction_factor[3] 	0.0027225701061802
scalar abilene_cost_network.node[3].content_store 	xi[3] 	1
scalar abilene_cost_network.node[4].core_layer 	interests[4] 	123055
scalar abilene_cost_network.node[4].core_layer 	repo_load[4] 	81742
scalar abilene_cost_network.node[4].core_layer 	data[4] 	0
scalar abilene_cost_network.node[4].content_store 	p_hit[4] 	0.33572792653691
scalar abilene_cost_network.node[4].content_store 	hits[4] 	41313
scalar abilene_cost_network.node[4].content_store 	misses[4] 	81742
scalar abilene_cost_network.node[4].content_store 	decision_yes[4] 	2175
scalar abilene_cost_network.node[4].content_store 	decision_no[4] 	79567
scalar abilene_cost_network.node[4].content_store 	decision_ratio[4] 	0.026608108438746
scalar abilene_cost_network.node[4].content_store 	correction_factor[4] 	0.0027225701061802
scalar abilene_cost_network.node[4].content_store 	xi[4] 	1
scalar abilene_cost_network.node[5].core_layer 	interests[5] 	0
scalar abilene_cost_network.node[5].core_layer 	data[5] 	0
scalar abilene_cost_network.node[5].content_store 	p_hit[5] 	-nan
scalar abilene_cost_network.node[5].content_store 	hits[5] 	0
scalar abilene_cost_network.node[5].content_store 	misses[5] 	0
scalar abilene_cost_network.node[5].content_store 	decision_yes[5] 	0
scalar abilene_cost_network.node[5].content_store 	decision_no[5] 	0
scalar abilene_cost_network.node[5].content_store 	decision_ratio[5] 	0
scalar abilene_cost_network.node[5].content_store 	correction_factor[5] 	0.0027225701061802
scalar abilene_cost_network.node[5].content_store 	xi[5] 	1
scalar abilene_cost_network.node[6].core_layer 	interests[6] 	0
scalar abilene_cost_network.node[6].core_layer 	data[6] 	0
scalar abilene_cost_network.node[6].content_store 	p_hit[6] 	-nan
scalar abilene_cost_network.node[6].content_store 	hits[6] 	0
scalar abilene_cost_network.node[6].content_store 	misses[6] 	0
scalar abilene_cost_network.node[6].content_store 	decision_yes[6] 	0
scalar abilene_cost_network.node[6].content_store 	decision_no[6] 	0
scalar abilene_cost_network.node[6].content_store 	decision_ratio[6] 	0
scalar abilene_cost_network.node[6].content_store 	correction_factor[6] 	0.0027225701061802
scalar abilene_cost_network.node[6].content_store 	xi[6] 	1
scalar abilene_cost_network.node[7].core_layer 	interests[7] 	0
scalar abilene_cost_network.node[7].core_layer 	data[7] 	0
scalar abilene_cost_network.node[7].content_store 	p_hit[7] 	-nan
scalar abilene_cost_network.node[7].content_store 	hits[7] 	0
scalar abilene_cost_network.node[7].content_store 	misses[7] 	0
scalar abilene_cost_network.node[7].content_store 	decision_yes[7] 	0
scalar abilene_cost_network.node[7].content_store 	decision_no[7] 	0
scalar abilene_cost_network.node[7].content_store 	decision_ratio[7] 	0
scalar abilene_cost_network.node[7].content_store 	correction_factor[7] 	0.0027225701061802
scalar abilene_cost_network.node[7].content_store 	xi[7] 	1
scalar abilene_cost_network.node[8].core_layer 	interests[8] 	0
scalar abilene_cost_network.node[8].core_layer 	data[8] 	0
scalar abilene_cost_network.node[8].content_store 	p_hit[8] 	-nan
scalar abilene_cost_network.node[8].content_store 	hits[8] 	0
scalar abilene_cost_network.node[8].content_store 	misses[8] 	0
scalar abilene_cost_network.node[8].content_store 	decision_yes[8] 	0
scalar abilene_cost_network.node[8].content_store 	decision_no[8] 	0
scalar abilene_cost_network.node[8].content_store 	decision_ratio[8] 	0
scalar abilene_cost_network.node[8].content_store 	correction_factor[8] 	0.0027225701061802
scalar abilene_cost_network.node[8].content_store 	xi[8] 	1
scalar abilene_cost_network.node[9].core_layer 	interests[9] 	0
scalar abilene_cost_network.node[9].core_layer 	data[9] 	0
scalar abilene_cost_network.node[9].content_store 	p_hit[9] 	-nan
scalar abilene_cost_network.node[9].content_store 	hits[9] 	0
scalar abilene_cost_network.node[9].content_store 	misses[9] 	0
scalar abilene_cost_network.node[9].content_store 	decision_yes[9] 	0
scalar abilene_cost_network.node[9].content_store 	decision_no[9] 	0
scalar abilene_cost_network.node[9].content_store 	decision_ratio[9] 	0
scalar abilene_cost_network.node[9].content_store 	correction_factor[9] 	0.0027225701061802
scalar abilene_cost_network.node[9].content_store 	xi[9] 	1
scalar abilene_cost_network.node[10].core_layer 	interests[10] 	179879
scalar abilene_cost_network.node[10].core_layer 	data[10] 	166120
scalar abilene_cost_network.node[10].content_store 	p_hit[10] 	0.062769973148617
scalar abilene_cost_network.node[10].content_store 	hits[10] 	11291
scalar abilene_cost_network.node[10].content_store 	misses[10] 	168588
scalar abilene_cost_network.node[10].content_store 	decision_yes[10] 	767
scalar abilene_cost_network.node[10].content_store 	decision_no[10] 	165353
scalar abilene_cost_network.node[10].content_store 	decision_ratio[10] 	0.0046171442330845
scalar abilene_cost_network.node[10].content_store 	correction_factor[10] 	0.0027225701061802
scalar abilene_cost_network.node[10].content_store 	xi[10] 	1
scalar abilene_cost_network.client[0] 	hdistance[0] 	2.1368497647816
scalar abilene_cost_network.client[0] 	downloads[0] 	177282
scalar abilene_cost_network.client[0] 	avg_time[0] 	0.011206910792
scalar abilene_cost_network.client[0] 	interests_sent[0] 	180012
scalar abilene_cost_network.client[3] 	hdistance[3] 	2.4491760155602
scalar abilene_cost_network.client[3] 	downloads[3] 	179433
scalar abilene_cost_network.client[3] 	avg_time[3] 	0.009705052767
scalar abilene_cost_network.client[3] 	interests_sent[3] 	180329
scalar abilene_cost_network.client[10] 	hdistance[10] 	2.3113053869264
scalar abilene_cost_network.client[10] 	downloads[10] 	177411
scalar abilene_cost_network.client[10] 	avg_time[10] 	0.012004482264
scalar abilene_cost_network.client[10] 	interests_sent[10] 	179879
