version 2
run General-6-20150720-19:01:57-16167
attr C 1e4
attr D lce
attr F spr
attr R lru
attr a 1
attr brates 1
attr configname General
attr ctlg 1e6
attr datetime 20150720-19:01:57
attr experiment General
attr inifile omnetpp.ini
attr iterationvars "$net=abilene_nodelay, $rep=3, $lambda=100, $a=1, $ctlg=1e6, $brates=1, $F=spr, $ttl=1000, $D=lce, $R=lru, $C=1e4, $window=60, $variance=0.05, $mytime=1800"
attr iterationvars2 "$net=abilene_nodelay, $rep=3, $lambda=100, $a=1, $ctlg=1e6, $brates=1, $F=spr, $ttl=1000, $D=lce, $R=lru, $C=1e4, $window=60, $variance=0.05, $mytime=1800, $repetition=0"
attr lambda 100
attr measurement "$net=abilene_nodelay, $rep=3, $lambda=100, $a=1, $ctlg=1e6, $brates=1, $F=spr, $ttl=1000, $D=lce, $R=lru, $C=1e4, $window=60, $variance=0.05, $mytime=1800"
attr mytime 1800
attr net abilene_nodelay
attr network networks.${net=abilene_nodelay}_network
attr processid 16167
attr rep 3
attr repetition 0
attr replication #0
attr resultdir results
attr runnumber 6
attr seedset 3
attr ttl 1000
attr variance 0.05
attr window 60

scalar . 	C 	1e4
scalar . 	a 	1
scalar . 	brates 	1
scalar . 	ctlg 	1e6
scalar . 	lambda 	100
scalar . 	mytime 	1800
scalar . 	rep 	3
scalar . 	ttl 	1000
scalar . 	variance 	0.05
scalar . 	window 	60
scalar abilene_nodelay_network.content_distribution 	repo-0 	9
scalar abilene_nodelay_network.content_distribution 	repo-1 	4
scalar abilene_nodelay_network.content_distribution 	repo-2 	0
scalar abilene_nodelay_network.content_distribution 	repo-3 	1
scalar abilene_nodelay_network.content_distribution 	repo-4 	10
scalar abilene_nodelay_network.content_distribution 	repo-5 	8
scalar abilene_nodelay_network.content_distribution 	repo-6 	6
scalar abilene_nodelay_network.content_distribution 	repo-7 	3
scalar abilene_nodelay_network.content_distribution 	repo-8 	5
scalar abilene_nodelay_network.content_distribution 	repo-9 	2
scalar abilene_nodelay_network.content_distribution 	repo-10 	7
scalar abilene_nodelay_network.content_distribution 	client-0 	8
scalar abilene_nodelay_network.content_distribution 	client-1 	10
scalar abilene_nodelay_network.content_distribution 	client-2 	9
scalar abilene_nodelay_network.content_distribution 	client-3 	2
scalar abilene_nodelay_network.content_distribution 	client-4 	0
scalar abilene_nodelay_network.content_distribution 	client-5 	6
scalar abilene_nodelay_network.content_distribution 	client-6 	7
scalar abilene_nodelay_network.content_distribution 	client-7 	1
scalar abilene_nodelay_network.content_distribution 	client-8 	4
scalar abilene_nodelay_network.content_distribution 	client-9 	5
scalar abilene_nodelay_network.content_distribution 	client-10 	3
scalar abilene_nodelay_network.content_distribution 	repo-0_card 	90872
scalar abilene_nodelay_network.content_distribution 	repo-0_price 	0
scalar abilene_nodelay_network.content_distribution 	repo-1_card 	90744
scalar abilene_nodelay_network.content_distribution 	repo-1_price 	0
scalar abilene_nodelay_network.content_distribution 	repo-2_card 	90692
scalar abilene_nodelay_network.content_distribution 	repo-2_price 	0
scalar abilene_nodelay_network.content_distribution 	repo-3_card 	90815
scalar abilene_nodelay_network.content_distribution 	repo-3_price 	0
scalar abilene_nodelay_network.content_distribution 	repo-4_card 	90784
scalar abilene_nodelay_network.content_distribution 	repo-4_price 	0
scalar abilene_nodelay_network.content_distribution 	repo-5_card 	91461
scalar abilene_nodelay_network.content_distribution 	repo-5_price 	0
scalar abilene_nodelay_network.content_distribution 	repo-6_card 	90999
scalar abilene_nodelay_network.content_distribution 	repo-6_price 	0
scalar abilene_nodelay_network.content_distribution 	repo-7_card 	90956
scalar abilene_nodelay_network.content_distribution 	repo-7_price 	0
scalar abilene_nodelay_network.content_distribution 	repo-8_card 	91035
scalar abilene_nodelay_network.content_distribution 	repo-8_price 	0
scalar abilene_nodelay_network.content_distribution 	repo-9_card 	90758
scalar abilene_nodelay_network.content_distribution 	repo-9_price 	0
scalar abilene_nodelay_network.content_distribution 	repo-10_card 	90884
scalar abilene_nodelay_network.content_distribution 	repo-10_price 	0
scalar abilene_nodelay_network.statistics 	stabilization_time 	290.5
scalar abilene_nodelay_network.statistics 	p_hit 	0.28791776216497
scalar abilene_nodelay_network.statistics 	interests 	345145.27272727
scalar abilene_nodelay_network.statistics 	data 	165310.63636364
scalar abilene_nodelay_network.statistics 	hdistance 	1.366709167899
scalar abilene_nodelay_network.statistics 	avg_time 	0
scalar abilene_nodelay_network.statistics 	downloads 	1978181
scalar abilene_nodelay_network.statistics 	total_cost 	0
scalar abilene_nodelay_network.statistics 	total_replicas 	1000000
scalar abilene_nodelay_network.statistics 	"representations_downloaded 1:" 	0
scalar abilene_nodelay_network.statistics 	"slots_per_representation 100:" 	0
scalar abilene_nodelay_network.statistics 	inner_hit 	0.55258239766735
scalar abilene_nodelay_network.statistics 	execution_time 	77
scalar abilene_nodelay_network.node[0].core_layer 	interests[0] 	241413
scalar abilene_nodelay_network.node[0].core_layer 	repo_load[0] 	79871
scalar abilene_nodelay_network.node[0].core_layer 	data[0] 	72135
scalar abilene_nodelay_network.node[0].core_layer 	slots_sent[face$o[1]->client[0]] 	17981700
scalar abilene_nodelay_network.node[0].core_layer 	slots_sent[face$o[2]->node[1]] 	4782200
scalar abilene_nodelay_network.node[0].core_layer 	slots_sent[face$o[3]->node[10]] 	1377400
scalar abilene_nodelay_network.node[0].content_store 	p_hit[0] 	0.37034873846893
scalar abilene_nodelay_network.node[0].content_store 	hits[0] 	89407
scalar abilene_nodelay_network.node[0].content_store 	misses[0] 	152006
scalar abilene_nodelay_network.node[0].content_store 	decision_yes[0] 	72135
scalar abilene_nodelay_network.node[0].content_store 	decision_no[0] 	79871
scalar abilene_nodelay_network.node[0].content_store 	decision_ratio[0] 	0.47455363604068
scalar abilene_nodelay_network.node[1].core_layer 	interests[1] 	400517
scalar abilene_nodelay_network.node[1].core_layer 	repo_load[1] 	82814
scalar abilene_nodelay_network.node[1].core_layer 	data[1] 	215526
scalar abilene_nodelay_network.node[1].core_layer 	slots_sent[face$o[1]->client[1]] 	18029400
scalar abilene_nodelay_network.node[1].core_layer 	slots_sent[face$o[2]->node[0]] 	5791800
scalar abilene_nodelay_network.node[1].core_layer 	slots_sent[face$o[3]->node[10]] 	4398500
scalar abilene_nodelay_network.node[1].core_layer 	slots_sent[face$o[4]->node[2]] 	11832000
scalar abilene_nodelay_network.node[1].content_store 	p_hit[1] 	0.25511276674898
scalar abilene_nodelay_network.node[1].content_store 	hits[1] 	102177
scalar abilene_nodelay_network.node[1].content_store 	misses[1] 	298340
scalar abilene_nodelay_network.node[1].content_store 	decision_yes[1] 	215526
scalar abilene_nodelay_network.node[1].content_store 	decision_no[1] 	82814
scalar abilene_nodelay_network.node[1].content_store 	decision_ratio[1] 	0.72241737614802
scalar abilene_nodelay_network.node[2].core_layer 	interests[2] 	521267
scalar abilene_nodelay_network.node[2].core_layer 	repo_load[2] 	85418
scalar abilene_nodelay_network.node[2].core_layer 	data[2] 	324036
scalar abilene_nodelay_network.node[2].core_layer 	slots_sent[face$o[1]->client[2]] 	17973300
scalar abilene_nodelay_network.node[2].core_layer 	slots_sent[face$o[2]->node[1]] 	12725300
scalar abilene_nodelay_network.node[2].core_layer 	slots_sent[face$o[3]->node[3]] 	15320800
scalar abilene_nodelay_network.node[2].core_layer 	slots_sent[face$o[4]->node[8]] 	6107300
scalar abilene_nodelay_network.node[2].content_store 	p_hit[2] 	0.21450235675767
scalar abilene_nodelay_network.node[2].content_store 	hits[2] 	111813
scalar abilene_nodelay_network.node[2].content_store 	misses[2] 	409454
scalar abilene_nodelay_network.node[2].content_store 	decision_yes[2] 	324036
scalar abilene_nodelay_network.node[2].content_store 	decision_no[2] 	85418
scalar abilene_nodelay_network.node[2].content_store 	decision_ratio[2] 	0.79138560131297
scalar abilene_nodelay_network.node[3].core_layer 	interests[3] 	491835
scalar abilene_nodelay_network.node[3].core_layer 	repo_load[3] 	80727
scalar abilene_nodelay_network.node[3].core_layer 	data[3] 	297423
scalar abilene_nodelay_network.node[3].core_layer 	slots_sent[face$o[1]->client[3]] 	18010600
scalar abilene_nodelay_network.node[3].core_layer 	slots_sent[face$o[2]->node[2]] 	14901400
scalar abilene_nodelay_network.node[3].core_layer 	slots_sent[face$o[3]->node[4]] 	9438300
scalar abilene_nodelay_network.node[3].core_layer 	slots_sent[face$o[4]->node[7]] 	6833200
scalar abilene_nodelay_network.node[3].content_store 	p_hit[3] 	0.23114459117387
scalar abilene_nodelay_network.node[3].content_store 	hits[3] 	113685
scalar abilene_nodelay_network.node[3].content_store 	misses[3] 	378150
scalar abilene_nodelay_network.node[3].content_store 	decision_yes[3] 	297423
scalar abilene_nodelay_network.node[3].content_store 	decision_no[3] 	80727
scalar abilene_nodelay_network.node[3].content_store 	decision_ratio[3] 	0.78652122173741
scalar abilene_nodelay_network.node[4].core_layer 	interests[4] 	312734
scalar abilene_nodelay_network.node[4].core_layer 	repo_load[4] 	79449
scalar abilene_nodelay_network.node[4].core_layer 	data[4] 	136108
scalar abilene_nodelay_network.node[4].core_layer 	slots_sent[face$o[1]->client[4]] 	17985500
scalar abilene_nodelay_network.node[4].core_layer 	slots_sent[face$o[2]->node[3]] 	8239000
scalar abilene_nodelay_network.node[4].core_layer 	slots_sent[face$o[3]->node[5]] 	5048900
scalar abilene_nodelay_network.node[4].content_store 	p_hit[4] 	0.31073372258853
scalar abilene_nodelay_network.node[4].content_store 	hits[4] 	97177
scalar abilene_nodelay_network.node[4].content_store 	misses[4] 	215557
scalar abilene_nodelay_network.node[4].content_store 	decision_yes[4] 	136108
scalar abilene_nodelay_network.node[4].content_store 	decision_no[4] 	79449
scalar abilene_nodelay_network.node[4].content_store 	decision_ratio[4] 	0.63142463478338
scalar abilene_nodelay_network.node[5].core_layer 	interests[5] 	252633
scalar abilene_nodelay_network.node[5].core_layer 	repo_load[5] 	68860
scalar abilene_nodelay_network.node[5].core_layer 	data[5] 	85757
scalar abilene_nodelay_network.node[5].core_layer 	slots_sent[face$o[1]->client[5]] 	17962000
scalar abilene_nodelay_network.node[5].core_layer 	slots_sent[face$o[2]->node[4]] 	4172500
scalar abilene_nodelay_network.node[5].core_layer 	slots_sent[face$o[3]->node[6]] 	3128800
scalar abilene_nodelay_network.node[5].content_store 	p_hit[5] 	0.38797781762478
scalar abilene_nodelay_network.node[5].content_store 	hits[5] 	98016
scalar abilene_nodelay_network.node[5].content_store 	misses[5] 	154617
scalar abilene_nodelay_network.node[5].content_store 	decision_yes[5] 	85757
scalar abilene_nodelay_network.node[5].content_store 	decision_no[5] 	68860
scalar abilene_nodelay_network.node[5].content_store 	decision_ratio[5] 	0.55464146891998
scalar abilene_nodelay_network.node[6].core_layer 	interests[6] 	281405
scalar abilene_nodelay_network.node[6].core_layer 	repo_load[6] 	71396
scalar abilene_nodelay_network.node[6].core_layer 	data[6] 	111350
scalar abilene_nodelay_network.node[6].core_layer 	slots_sent[face$o[1]->client[6]] 	17993700
scalar abilene_nodelay_network.node[6].core_layer 	slots_sent[face$o[2]->node[5]] 	3526800
scalar abilene_nodelay_network.node[6].core_layer 	slots_sent[face$o[3]->node[7]] 	6620000
scalar abilene_nodelay_network.node[6].content_store 	p_hit[6] 	0.35059433911977
scalar abilene_nodelay_network.node[6].content_store 	hits[6] 	98659
scalar abilene_nodelay_network.node[6].content_store 	misses[6] 	182746
scalar abilene_nodelay_network.node[6].content_store 	decision_yes[6] 	111350
scalar abilene_nodelay_network.node[6].content_store 	decision_no[6] 	71396
scalar abilene_nodelay_network.node[6].content_store 	decision_ratio[6] 	0.60931566217592
scalar abilene_nodelay_network.node[7].core_layer 	interests[7] 	376163
scalar abilene_nodelay_network.node[7].core_layer 	repo_load[7] 	81555
scalar abilene_nodelay_network.node[7].core_layer 	data[7] 	189533
scalar abilene_nodelay_network.node[7].core_layer 	slots_sent[face$o[1]->client[7]] 	18036000
scalar abilene_nodelay_network.node[7].core_layer 	slots_sent[face$o[2]->node[3]] 	6182500
scalar abilene_nodelay_network.node[7].core_layer 	slots_sent[face$o[3]->node[6]] 	8006200
scalar abilene_nodelay_network.node[7].core_layer 	slots_sent[face$o[4]->node[8]] 	5391600
scalar abilene_nodelay_network.node[7].content_store 	p_hit[7] 	0.27933369310645
scalar abilene_nodelay_network.node[7].content_store 	hits[7] 	105075
scalar abilene_nodelay_network.node[7].content_store 	misses[7] 	271088
scalar abilene_nodelay_network.node[7].content_store 	decision_yes[7] 	189533
scalar abilene_nodelay_network.node[7].content_store 	decision_no[7] 	81555
scalar abilene_nodelay_network.node[7].content_store 	decision_ratio[7] 	0.6991567313935
scalar abilene_nodelay_network.node[8].core_layer 	interests[8] 	362590
scalar abilene_nodelay_network.node[8].core_layer 	repo_load[8] 	81774
scalar abilene_nodelay_network.node[8].core_layer 	data[8] 	176803
scalar abilene_nodelay_network.node[8].core_layer 	slots_sent[face$o[1]->client[8]] 	17953100
scalar abilene_nodelay_network.node[8].core_layer 	slots_sent[face$o[2]->node[2]] 	5670200
scalar abilene_nodelay_network.node[8].core_layer 	slots_sent[face$o[3]->node[7]] 	5500100
scalar abilene_nodelay_network.node[8].core_layer 	slots_sent[face$o[4]->node[9]] 	7135600
scalar abilene_nodelay_network.node[8].content_store 	p_hit[8] 	0.2868611930831
scalar abilene_nodelay_network.node[8].content_store 	hits[8] 	104013
scalar abilene_nodelay_network.node[8].content_store 	misses[8] 	258577
scalar abilene_nodelay_network.node[8].content_store 	decision_yes[8] 	176803
scalar abilene_nodelay_network.node[8].content_store 	decision_no[8] 	81774
scalar abilene_nodelay_network.node[8].content_store 	decision_ratio[8] 	0.68375377547114
scalar abilene_nodelay_network.node[9].core_layer 	interests[9] 	282013
scalar abilene_nodelay_network.node[9].core_layer 	repo_load[9] 	92757
scalar abilene_nodelay_network.node[9].core_layer 	data[9] 	110859
scalar abilene_nodelay_network.node[9].core_layer 	slots_sent[face$o[1]->client[9]] 	17907100
scalar abilene_nodelay_network.node[9].core_layer 	slots_sent[face$o[2]->node[10]] 	4112800
scalar abilene_nodelay_network.node[9].core_layer 	slots_sent[face$o[3]->node[8]] 	6181400
scalar abilene_nodelay_network.node[9].content_store 	p_hit[9] 	0.27799073092375
scalar abilene_nodelay_network.node[9].content_store 	hits[9] 	78397
scalar abilene_nodelay_network.node[9].content_store 	misses[9] 	203616
scalar abilene_nodelay_network.node[9].content_store 	decision_yes[9] 	110859
scalar abilene_nodelay_network.node[9].content_store 	decision_no[9] 	92757
scalar abilene_nodelay_network.node[9].content_store 	decision_ratio[9] 	0.54445132013201
scalar abilene_nodelay_network.node[10].core_layer 	interests[10] 	274028
scalar abilene_nodelay_network.node[10].core_layer 	repo_load[10] 	80452
scalar abilene_nodelay_network.node[10].core_layer 	data[10] 	98887
scalar abilene_nodelay_network.node[10].core_layer 	slots_sent[face$o[1]->client[10]] 	17985700
scalar abilene_nodelay_network.node[10].core_layer 	slots_sent[face$o[2]->node[0]] 	1421700
scalar abilene_nodelay_network.node[10].core_layer 	slots_sent[face$o[3]->node[1]] 	4045100
scalar abilene_nodelay_network.node[10].core_layer 	slots_sent[face$o[4]->node[9]] 	3950300
scalar abilene_nodelay_network.node[10].content_store 	p_hit[10] 	0.34554498080488
scalar abilene_nodelay_network.node[10].content_store 	hits[10] 	94689
scalar abilene_nodelay_network.node[10].content_store 	misses[10] 	179339
scalar abilene_nodelay_network.node[10].content_store 	decision_yes[10] 	98887
scalar abilene_nodelay_network.node[10].content_store 	decision_no[10] 	80452
scalar abilene_nodelay_network.node[10].content_store 	decision_ratio[10] 	0.55139707481362
scalar abilene_nodelay_network.client[0] 	hdistance[0].real 	1.5177374775466
scalar abilene_nodelay_network.client[0] 	downloads[0].real 	179817
scalar abilene_nodelay_network.client[0] 	avg_time[0].real 	0
scalar abilene_nodelay_network.client[1] 	hdistance[1].real 	1.3674609249337
scalar abilene_nodelay_network.client[1] 	downloads[1].real 	180294
scalar abilene_nodelay_network.client[1] 	avg_time[1].real 	0
scalar abilene_nodelay_network.client[2] 	hdistance[2].real 	1.2254677772028
scalar abilene_nodelay_network.client[2] 	downloads[2].real 	179733
scalar abilene_nodelay_network.client[2] 	avg_time[2].real 	0
scalar abilene_nodelay_network.client[3] 	hdistance[3].real 	1.2422739942034
scalar abilene_nodelay_network.client[3] 	downloads[3].real 	180106
scalar abilene_nodelay_network.client[3] 	avg_time[3].real 	0
scalar abilene_nodelay_network.client[4] 	hdistance[4].real 	1.4374412721359
scalar abilene_nodelay_network.client[4] 	downloads[4].real 	179855
scalar abilene_nodelay_network.client[4] 	avg_time[4].real 	0
scalar abilene_nodelay_network.client[5] 	hdistance[5].real 	1.4901848346509
scalar abilene_nodelay_network.client[5] 	downloads[5].real 	179620
scalar abilene_nodelay_network.client[5] 	avg_time[5].real 	0
scalar abilene_nodelay_network.client[6] 	hdistance[6].real 	1.4328237105209
scalar abilene_nodelay_network.client[6] 	downloads[6].real 	179937
scalar abilene_nodelay_network.client[6] 	avg_time[6].real 	0
scalar abilene_nodelay_network.client[7] 	hdistance[7].real 	1.2574351297405
scalar abilene_nodelay_network.client[7] 	downloads[7].real 	180360
scalar abilene_nodelay_network.client[7] 	avg_time[7].real 	0
scalar abilene_nodelay_network.client[8] 	hdistance[8].real 	1.2176448635612
scalar abilene_nodelay_network.client[8] 	downloads[8].real 	179531
scalar abilene_nodelay_network.client[8] 	avg_time[8].real 	0
scalar abilene_nodelay_network.client[9] 	hdistance[9].real 	1.4410596914073
scalar abilene_nodelay_network.client[9] 	downloads[9].real 	179071
scalar abilene_nodelay_network.client[9] 	avg_time[9].real 	0
scalar abilene_nodelay_network.client[10] 	hdistance[10].real 	1.4042711709858
scalar abilene_nodelay_network.client[10] 	downloads[10].real 	179857
scalar abilene_nodelay_network.client[10] 	avg_time[10].real 	0
