version 2
run General-12-20150720-19:04:07-16173
attr C 1e4
attr D lce
attr F spr
attr R lru
attr a 1
attr brates 1
attr configname General
attr ctlg 1e6
attr datetime 20150720-19:04:07
attr experiment General
attr inifile omnetpp.ini
attr iterationvars "$net=abilene_nodelay, $rep=6, $lambda=100, $a=1, $ctlg=1e6, $brates=1, $F=spr, $ttl=1000, $D=lce, $R=lru, $C=1e4, $window=60, $variance=0.05, $mytime=1800"
attr iterationvars2 "$net=abilene_nodelay, $rep=6, $lambda=100, $a=1, $ctlg=1e6, $brates=1, $F=spr, $ttl=1000, $D=lce, $R=lru, $C=1e4, $window=60, $variance=0.05, $mytime=1800, $repetition=0"
attr lambda 100
attr measurement "$net=abilene_nodelay, $rep=6, $lambda=100, $a=1, $ctlg=1e6, $brates=1, $F=spr, $ttl=1000, $D=lce, $R=lru, $C=1e4, $window=60, $variance=0.05, $mytime=1800"
attr mytime 1800
attr net abilene_nodelay
attr network networks.${net=abilene_nodelay}_network
attr processid 16173
attr rep 6
attr repetition 0
attr replication #0
attr resultdir results
attr runnumber 12
attr seedset 6
attr ttl 1000
attr variance 0.05
attr window 60

scalar . 	C 	1e4
scalar . 	a 	1
scalar . 	brates 	1
scalar . 	ctlg 	1e6
scalar . 	lambda 	100
scalar . 	mytime 	1800
scalar . 	rep 	6
scalar . 	ttl 	1000
scalar . 	variance 	0.05
scalar . 	window 	60
scalar abilene_nodelay_network.content_distribution 	repo-0 	5
scalar abilene_nodelay_network.content_distribution 	repo-1 	2
scalar abilene_nodelay_network.content_distribution 	repo-2 	8
scalar abilene_nodelay_network.content_distribution 	repo-3 	3
scalar abilene_nodelay_network.content_distribution 	repo-4 	4
scalar abilene_nodelay_network.content_distribution 	repo-5 	10
scalar abilene_nodelay_network.content_distribution 	repo-6 	6
scalar abilene_nodelay_network.content_distribution 	repo-7 	1
scalar abilene_nodelay_network.content_distribution 	repo-8 	7
scalar abilene_nodelay_network.content_distribution 	repo-9 	0
scalar abilene_nodelay_network.content_distribution 	repo-10 	9
scalar abilene_nodelay_network.content_distribution 	client-0 	9
scalar abilene_nodelay_network.content_distribution 	client-1 	4
scalar abilene_nodelay_network.content_distribution 	client-2 	5
scalar abilene_nodelay_network.content_distribution 	client-3 	7
scalar abilene_nodelay_network.content_distribution 	client-4 	1
scalar abilene_nodelay_network.content_distribution 	client-5 	2
scalar abilene_nodelay_network.content_distribution 	client-6 	3
scalar abilene_nodelay_network.content_distribution 	client-7 	8
scalar abilene_nodelay_network.content_distribution 	client-8 	0
scalar abilene_nodelay_network.content_distribution 	client-9 	6
scalar abilene_nodelay_network.content_distribution 	client-10 	10
scalar abilene_nodelay_network.content_distribution 	repo-0_card 	91268
scalar abilene_nodelay_network.content_distribution 	repo-0_price 	0
scalar abilene_nodelay_network.content_distribution 	repo-1_card 	90956
scalar abilene_nodelay_network.content_distribution 	repo-1_price 	0
scalar abilene_nodelay_network.content_distribution 	repo-2_card 	90692
scalar abilene_nodelay_network.content_distribution 	repo-2_price 	0
scalar abilene_nodelay_network.content_distribution 	repo-3_card 	90986
scalar abilene_nodelay_network.content_distribution 	repo-3_price 	0
scalar abilene_nodelay_network.content_distribution 	repo-4_card 	90996
scalar abilene_nodelay_network.content_distribution 	repo-4_price 	0
scalar abilene_nodelay_network.content_distribution 	repo-5_card 	91234
scalar abilene_nodelay_network.content_distribution 	repo-5_price 	0
scalar abilene_nodelay_network.content_distribution 	repo-6_card 	91263
scalar abilene_nodelay_network.content_distribution 	repo-6_price 	0
scalar abilene_nodelay_network.content_distribution 	repo-7_card 	91049
scalar abilene_nodelay_network.content_distribution 	repo-7_price 	0
scalar abilene_nodelay_network.content_distribution 	repo-8_card 	90697
scalar abilene_nodelay_network.content_distribution 	repo-8_price 	0
scalar abilene_nodelay_network.content_distribution 	repo-9_card 	89857
scalar abilene_nodelay_network.content_distribution 	repo-9_price 	0
scalar abilene_nodelay_network.content_distribution 	repo-10_card 	91002
scalar abilene_nodelay_network.content_distribution 	repo-10_price 	0
scalar abilene_nodelay_network.statistics 	stabilization_time 	292
scalar abilene_nodelay_network.statistics 	p_hit 	0.28840812573777
scalar abilene_nodelay_network.statistics 	interests 	345868.45454545
scalar abilene_nodelay_network.statistics 	data 	165631.18181818
scalar abilene_nodelay_network.statistics 	hdistance 	1.3655808943239
scalar abilene_nodelay_network.statistics 	avg_time 	0
scalar abilene_nodelay_network.statistics 	downloads 	1982610
scalar abilene_nodelay_network.statistics 	total_cost 	0
scalar abilene_nodelay_network.statistics 	total_replicas 	1000000
scalar abilene_nodelay_network.statistics 	"representations_downloaded 1:" 	0
scalar abilene_nodelay_network.statistics 	"slots_per_representation 100:" 	0
scalar abilene_nodelay_network.statistics 	inner_hit 	0.55344419729548
scalar abilene_nodelay_network.statistics 	execution_time 	86
scalar abilene_nodelay_network.node[0].core_layer 	interests[0] 	240278
scalar abilene_nodelay_network.node[0].core_layer 	repo_load[0] 	75360
scalar abilene_nodelay_network.node[0].core_layer 	data[0] 	72574
scalar abilene_nodelay_network.node[0].core_layer 	slots_sent[face$o[1]->client[0]] 	18041600
scalar abilene_nodelay_network.node[0].core_layer 	slots_sent[face$o[2]->node[1]] 	4662900
scalar abilene_nodelay_network.node[0].core_layer 	slots_sent[face$o[3]->node[10]] 	1323300
scalar abilene_nodelay_network.node[0].content_store 	p_hit[0] 	0.38432149426914
scalar abilene_nodelay_network.node[0].content_store 	hits[0] 	92344
scalar abilene_nodelay_network.node[0].content_store 	misses[0] 	147934
scalar abilene_nodelay_network.node[0].content_store 	decision_yes[0] 	72574
scalar abilene_nodelay_network.node[0].content_store 	decision_no[0] 	75360
scalar abilene_nodelay_network.node[0].content_store 	decision_ratio[0] 	0.49058363864967
scalar abilene_nodelay_network.node[1].core_layer 	interests[1] 	399201
scalar abilene_nodelay_network.node[1].core_layer 	repo_load[1] 	92359
scalar abilene_nodelay_network.node[1].core_layer 	data[1] 	214410
scalar abilene_nodelay_network.node[1].core_layer 	slots_sent[face$o[1]->client[1]] 	18013400
scalar abilene_nodelay_network.node[1].core_layer 	slots_sent[face$o[2]->node[0]] 	5818500
scalar abilene_nodelay_network.node[1].core_layer 	slots_sent[face$o[3]->node[10]] 	4386800
scalar abilene_nodelay_network.node[1].core_layer 	slots_sent[face$o[4]->node[2]] 	11701400
scalar abilene_nodelay_network.node[1].content_store 	p_hit[1] 	0.23154250615605
scalar abilene_nodelay_network.node[1].content_store 	hits[1] 	92432
scalar abilene_nodelay_network.node[1].content_store 	misses[1] 	306769
scalar abilene_nodelay_network.node[1].content_store 	decision_yes[1] 	214410
scalar abilene_nodelay_network.node[1].content_store 	decision_no[1] 	92359
scalar abilene_nodelay_network.node[1].content_store 	decision_ratio[1] 	0.69892981363827
scalar abilene_nodelay_network.node[2].core_layer 	interests[2] 	518630
scalar abilene_nodelay_network.node[2].core_layer 	repo_load[2] 	80847
scalar abilene_nodelay_network.node[2].core_layer 	data[2] 	323919
scalar abilene_nodelay_network.node[2].core_layer 	slots_sent[face$o[1]->client[2]] 	18025700
scalar abilene_nodelay_network.node[2].core_layer 	slots_sent[face$o[2]->node[1]] 	12719100
scalar abilene_nodelay_network.node[2].core_layer 	slots_sent[face$o[3]->node[3]] 	15086800
scalar abilene_nodelay_network.node[2].core_layer 	slots_sent[face$o[4]->node[8]] 	6031400
scalar abilene_nodelay_network.node[2].content_store 	p_hit[2] 	0.21954765439716
scalar abilene_nodelay_network.node[2].content_store 	hits[2] 	113864
scalar abilene_nodelay_network.node[2].content_store 	misses[2] 	404766
scalar abilene_nodelay_network.node[2].content_store 	decision_yes[2] 	323919
scalar abilene_nodelay_network.node[2].content_store 	decision_no[2] 	80847
scalar abilene_nodelay_network.node[2].content_store 	decision_ratio[2] 	0.80026237381598
scalar abilene_nodelay_network.node[3].core_layer 	interests[3] 	490718
scalar abilene_nodelay_network.node[3].core_layer 	repo_load[3] 	83579
scalar abilene_nodelay_network.node[3].core_layer 	data[3] 	297517
scalar abilene_nodelay_network.node[3].core_layer 	slots_sent[face$o[1]->client[3]] 	17962200
scalar abilene_nodelay_network.node[3].core_layer 	slots_sent[face$o[2]->node[2]] 	15026100
scalar abilene_nodelay_network.node[3].core_layer 	slots_sent[face$o[3]->node[4]] 	9345800
scalar abilene_nodelay_network.node[3].core_layer 	slots_sent[face$o[4]->node[7]] 	6737700
scalar abilene_nodelay_network.node[3].content_store 	p_hit[3] 	0.22339103110137
scalar abilene_nodelay_network.node[3].content_store 	hits[3] 	109622
scalar abilene_nodelay_network.node[3].content_store 	misses[3] 	381096
scalar abilene_nodelay_network.node[3].content_store 	decision_yes[3] 	297517
scalar abilene_nodelay_network.node[3].content_store 	decision_no[3] 	83579
scalar abilene_nodelay_network.node[3].content_store 	decision_ratio[3] 	0.78068780569725
scalar abilene_nodelay_network.node[4].core_layer 	interests[4] 	314912
scalar abilene_nodelay_network.node[4].core_layer 	repo_load[4] 	77931
scalar abilene_nodelay_network.node[4].core_layer 	data[4] 	137033
scalar abilene_nodelay_network.node[4].core_layer 	slots_sent[face$o[1]->client[4]] 	18044600
scalar abilene_nodelay_network.node[4].core_layer 	slots_sent[face$o[2]->node[3]] 	8453100
scalar abilene_nodelay_network.node[4].core_layer 	slots_sent[face$o[3]->node[5]] 	4993500
scalar abilene_nodelay_network.node[4].content_store 	p_hit[4] 	0.31738390407479
scalar abilene_nodelay_network.node[4].content_store 	hits[4] 	99948
scalar abilene_nodelay_network.node[4].content_store 	misses[4] 	214964
scalar abilene_nodelay_network.node[4].content_store 	decision_yes[4] 	137033
scalar abilene_nodelay_network.node[4].content_store 	decision_no[4] 	77931
scalar abilene_nodelay_network.node[4].content_store 	decision_ratio[4] 	0.63746952978173
scalar abilene_nodelay_network.node[5].core_layer 	interests[5] 	255719
scalar abilene_nodelay_network.node[5].core_layer 	repo_load[5] 	72959
scalar abilene_nodelay_network.node[5].core_layer 	data[5] 	85644
scalar abilene_nodelay_network.node[5].core_layer 	slots_sent[face$o[1]->client[5]] 	17980300
scalar abilene_nodelay_network.node[5].core_layer 	slots_sent[face$o[2]->node[4]] 	4357500
scalar abilene_nodelay_network.node[5].core_layer 	slots_sent[face$o[3]->node[6]] 	3234100
scalar abilene_nodelay_network.node[5].content_store 	p_hit[5] 	0.37977623876208
scalar abilene_nodelay_network.node[5].content_store 	hits[5] 	97116
scalar abilene_nodelay_network.node[5].content_store 	misses[5] 	158603
scalar abilene_nodelay_network.node[5].content_store 	decision_yes[5] 	85644
scalar abilene_nodelay_network.node[5].content_store 	decision_no[5] 	72959
scalar abilene_nodelay_network.node[5].content_store 	decision_ratio[5] 	0.53998978581742
scalar abilene_nodelay_network.node[6].core_layer 	interests[6] 	283027
scalar abilene_nodelay_network.node[6].core_layer 	repo_load[6] 	73316
scalar abilene_nodelay_network.node[6].core_layer 	data[6] 	111825
scalar abilene_nodelay_network.node[6].core_layer 	slots_sent[face$o[1]->client[6]] 	17986100
scalar abilene_nodelay_network.node[6].core_layer 	slots_sent[face$o[2]->node[5]] 	3570900
scalar abilene_nodelay_network.node[6].core_layer 	slots_sent[face$o[3]->node[7]] 	6745700
scalar abilene_nodelay_network.node[6].content_store 	p_hit[6] 	0.34585392913044
scalar abilene_nodelay_network.node[6].content_store 	hits[6] 	97886
scalar abilene_nodelay_network.node[6].content_store 	misses[6] 	185141
scalar abilene_nodelay_network.node[6].content_store 	decision_yes[6] 	111825
scalar abilene_nodelay_network.node[6].content_store 	decision_no[6] 	73316
scalar abilene_nodelay_network.node[6].content_store 	decision_ratio[6] 	0.60399911418865
scalar abilene_nodelay_network.node[7].core_layer 	interests[7] 	377689
scalar abilene_nodelay_network.node[7].core_layer 	repo_load[7] 	82333
scalar abilene_nodelay_network.node[7].core_layer 	data[7] 	190127
scalar abilene_nodelay_network.node[7].core_layer 	slots_sent[face$o[1]->client[7]] 	18065800
scalar abilene_nodelay_network.node[7].core_layer 	slots_sent[face$o[2]->node[3]] 	6211800
scalar abilene_nodelay_network.node[7].core_layer 	slots_sent[face$o[3]->node[6]] 	7948400
scalar abilene_nodelay_network.node[7].core_layer 	slots_sent[face$o[4]->node[8]] 	5542900
scalar abilene_nodelay_network.node[7].content_store 	p_hit[7] 	0.27861282695551
scalar abilene_nodelay_network.node[7].content_store 	hits[7] 	105229
scalar abilene_nodelay_network.node[7].content_store 	misses[7] 	272460
scalar abilene_nodelay_network.node[7].content_store 	decision_yes[7] 	190127
scalar abilene_nodelay_network.node[7].content_store 	decision_no[7] 	82333
scalar abilene_nodelay_network.node[7].content_store 	decision_ratio[7] 	0.69781619320267
scalar abilene_nodelay_network.node[8].core_layer 	interests[8] 	365142
scalar abilene_nodelay_network.node[8].core_layer 	repo_load[8] 	79754
scalar abilene_nodelay_network.node[8].core_layer 	data[8] 	177932
scalar abilene_nodelay_network.node[8].core_layer 	slots_sent[face$o[1]->client[8]] 	18081500
scalar abilene_nodelay_network.node[8].core_layer 	slots_sent[face$o[2]->node[2]] 	5664400
scalar abilene_nodelay_network.node[8].core_layer 	slots_sent[face$o[3]->node[7]] 	5529300
scalar abilene_nodelay_network.node[8].core_layer 	slots_sent[face$o[4]->node[9]] 	7239000
scalar abilene_nodelay_network.node[8].content_store 	p_hit[8] 	0.29428551084236
scalar abilene_nodelay_network.node[8].content_store 	hits[8] 	107456
scalar abilene_nodelay_network.node[8].content_store 	misses[8] 	257686
scalar abilene_nodelay_network.node[8].content_store 	decision_yes[8] 	177932
scalar abilene_nodelay_network.node[8].content_store 	decision_no[8] 	79754
scalar abilene_nodelay_network.node[8].content_store 	decision_ratio[8] 	0.69049928983336
scalar abilene_nodelay_network.node[9].core_layer 	interests[9] 	284393
scalar abilene_nodelay_network.node[9].core_layer 	repo_load[9] 	86460
scalar abilene_nodelay_network.node[9].core_layer 	data[9] 	112180
scalar abilene_nodelay_network.node[9].core_layer 	slots_sent[face$o[1]->client[9]] 	18052300
scalar abilene_nodelay_network.node[9].core_layer 	slots_sent[face$o[2]->node[10]] 	4168100
scalar abilene_nodelay_network.node[9].core_layer 	slots_sent[face$o[3]->node[8]] 	6218900
scalar abilene_nodelay_network.node[9].content_store 	p_hit[9] 	0.3015299251388
scalar abilene_nodelay_network.node[9].content_store 	hits[9] 	85753
scalar abilene_nodelay_network.node[9].content_store 	misses[9] 	198640
scalar abilene_nodelay_network.node[9].content_store 	decision_yes[9] 	112180
scalar abilene_nodelay_network.node[9].content_store 	decision_no[9] 	86460
scalar abilene_nodelay_network.node[9].content_store 	decision_ratio[9] 	0.5647402335884
scalar abilene_nodelay_network.node[10].core_layer 	interests[10] 	274844
scalar abilene_nodelay_network.node[10].core_layer 	repo_load[10] 	80448
scalar abilene_nodelay_network.node[10].core_layer 	data[10] 	98782
scalar abilene_nodelay_network.node[10].core_layer 	slots_sent[face$o[1]->client[10]] 	18007500
scalar abilene_nodelay_network.node[10].core_layer 	slots_sent[face$o[2]->node[0]] 	1438900
scalar abilene_nodelay_network.node[10].core_layer 	slots_sent[face$o[3]->node[1]] 	4059000
scalar abilene_nodelay_network.node[10].core_layer 	slots_sent[face$o[4]->node[9]] 	3979000
scalar abilene_nodelay_network.node[10].content_store 	p_hit[10] 	0.34788461818341
scalar abilene_nodelay_network.node[10].content_store 	hits[10] 	95614
scalar abilene_nodelay_network.node[10].content_store 	misses[10] 	179230
scalar abilene_nodelay_network.node[10].content_store 	decision_yes[10] 	98782
scalar abilene_nodelay_network.node[10].content_store 	decision_no[10] 	80448
scalar abilene_nodelay_network.node[10].content_store 	decision_ratio[10] 	0.55114657144451
scalar abilene_nodelay_network.client[0] 	hdistance[0].real 	1.5107307555871
scalar abilene_nodelay_network.client[0] 	downloads[0].real 	180416
scalar abilene_nodelay_network.client[0] 	avg_time[0].real 	0
scalar abilene_nodelay_network.client[1] 	hdistance[1].real 	1.4182608502559
scalar abilene_nodelay_network.client[1] 	downloads[1].real 	180134
scalar abilene_nodelay_network.client[1] 	avg_time[1].real 	0
scalar abilene_nodelay_network.client[2] 	hdistance[2].real 	1.2161469457497
scalar abilene_nodelay_network.client[2] 	downloads[2].real 	180257
scalar abilene_nodelay_network.client[2] 	avg_time[2].real 	0
scalar abilene_nodelay_network.client[3] 	hdistance[3].real 	1.2671554709334
scalar abilene_nodelay_network.client[3] 	downloads[3].real 	179622
scalar abilene_nodelay_network.client[3] 	avg_time[3].real 	0
scalar abilene_nodelay_network.client[4] 	hdistance[4].real 	1.4211620096871
scalar abilene_nodelay_network.client[4] 	downloads[4].real 	180446
scalar abilene_nodelay_network.client[4] 	avg_time[4].real 	0
scalar abilene_nodelay_network.client[5] 	hdistance[5].real 	1.4907259611909
scalar abilene_nodelay_network.client[5] 	downloads[5].real 	179803
scalar abilene_nodelay_network.client[5] 	avg_time[5].real 	0
scalar abilene_nodelay_network.client[6] 	hdistance[6].real 	1.4321281433996
scalar abilene_nodelay_network.client[6] 	downloads[6].real 	179861
scalar abilene_nodelay_network.client[6] 	avg_time[6].real 	0
scalar abilene_nodelay_network.client[7] 	hdistance[7].real 	1.2561691151236
scalar abilene_nodelay_network.client[7] 	downloads[7].real 	180658
scalar abilene_nodelay_network.client[7] 	avg_time[7].real 	0
scalar abilene_nodelay_network.client[8] 	hdistance[8].real 	1.2016038492382
scalar abilene_nodelay_network.client[8] 	downloads[8].real 	180815
scalar abilene_nodelay_network.client[8] 	avg_time[8].real 	0
scalar abilene_nodelay_network.client[9] 	hdistance[9].real 	1.4045523285122
scalar abilene_nodelay_network.client[9] 	downloads[9].real 	180523
scalar abilene_nodelay_network.client[9] 	avg_time[9].real 	0
scalar abilene_nodelay_network.client[10] 	hdistance[10].real 	1.4027544078856
scalar abilene_nodelay_network.client[10] 	downloads[10].real 	180075
scalar abilene_nodelay_network.client[10] 	avg_time[10].real 	0
