version 2
run General-2-20150720-19:00:39-16154
attr C 1e4
attr D lce
attr F spr
attr R lru
attr a 1
attr brates 1
attr configname General
attr ctlg 1e6
attr datetime 20150720-19:00:39
attr experiment General
attr inifile omnetpp.ini
attr iterationvars "$net=abilene_nodelay, $rep=1, $lambda=100, $a=1, $ctlg=1e6, $brates=1, $F=spr, $ttl=1000, $D=lce, $R=lru, $C=1e4, $window=60, $variance=0.05, $mytime=1800"
attr iterationvars2 "$net=abilene_nodelay, $rep=1, $lambda=100, $a=1, $ctlg=1e6, $brates=1, $F=spr, $ttl=1000, $D=lce, $R=lru, $C=1e4, $window=60, $variance=0.05, $mytime=1800, $repetition=0"
attr lambda 100
attr measurement "$net=abilene_nodelay, $rep=1, $lambda=100, $a=1, $ctlg=1e6, $brates=1, $F=spr, $ttl=1000, $D=lce, $R=lru, $C=1e4, $window=60, $variance=0.05, $mytime=1800"
attr mytime 1800
attr net abilene_nodelay
attr network networks.${net=abilene_nodelay}_network
attr processid 16154
attr rep 1
attr repetition 0
attr replication #0
attr resultdir results
attr runnumber 2
attr seedset 1
attr ttl 1000
attr variance 0.05
attr window 60

scalar . 	C 	1e4
scalar . 	a 	1
scalar . 	brates 	1
scalar . 	ctlg 	1e6
scalar . 	lambda 	100
scalar . 	mytime 	1800
scalar . 	rep 	1
scalar . 	ttl 	1000
scalar . 	variance 	0.05
scalar . 	window 	60
scalar abilene_nodelay_network.content_distribution 	repo-0 	10
scalar abilene_nodelay_network.content_distribution 	repo-1 	7
scalar abilene_nodelay_network.content_distribution 	repo-2 	5
scalar abilene_nodelay_network.content_distribution 	repo-3 	1
scalar abilene_nodelay_network.content_distribution 	repo-4 	8
scalar abilene_nodelay_network.content_distribution 	repo-5 	2
scalar abilene_nodelay_network.content_distribution 	repo-6 	9
scalar abilene_nodelay_network.content_distribution 	repo-7 	4
scalar abilene_nodelay_network.content_distribution 	repo-8 	6
scalar abilene_nodelay_network.content_distribution 	repo-9 	3
scalar abilene_nodelay_network.content_distribution 	repo-10 	0
scalar abilene_nodelay_network.content_distribution 	client-0 	7
scalar abilene_nodelay_network.content_distribution 	client-1 	5
scalar abilene_nodelay_network.content_distribution 	client-2 	9
scalar abilene_nodelay_network.content_distribution 	client-3 	6
scalar abilene_nodelay_network.content_distribution 	client-4 	8
scalar abilene_nodelay_network.content_distribution 	client-5 	2
scalar abilene_nodelay_network.content_distribution 	client-6 	1
scalar abilene_nodelay_network.content_distribution 	client-7 	10
scalar abilene_nodelay_network.content_distribution 	client-8 	0
scalar abilene_nodelay_network.content_distribution 	client-9 	3
scalar abilene_nodelay_network.content_distribution 	client-10 	4
scalar abilene_nodelay_network.content_distribution 	repo-0_card 	90939
scalar abilene_nodelay_network.content_distribution 	repo-0_price 	0
scalar abilene_nodelay_network.content_distribution 	repo-1_card 	90490
scalar abilene_nodelay_network.content_distribution 	repo-1_price 	0
scalar abilene_nodelay_network.content_distribution 	repo-2_card 	90363
scalar abilene_nodelay_network.content_distribution 	repo-2_price 	0
scalar abilene_nodelay_network.content_distribution 	repo-3_card 	90686
scalar abilene_nodelay_network.content_distribution 	repo-3_price 	0
scalar abilene_nodelay_network.content_distribution 	repo-4_card 	91009
scalar abilene_nodelay_network.content_distribution 	repo-4_price 	0
scalar abilene_nodelay_network.content_distribution 	repo-5_card 	90927
scalar abilene_nodelay_network.content_distribution 	repo-5_price 	0
scalar abilene_nodelay_network.content_distribution 	repo-6_card 	91541
scalar abilene_nodelay_network.content_distribution 	repo-6_price 	0
scalar abilene_nodelay_network.content_distribution 	repo-7_card 	91332
scalar abilene_nodelay_network.content_distribution 	repo-7_price 	0
scalar abilene_nodelay_network.content_distribution 	repo-8_card 	90743
scalar abilene_nodelay_network.content_distribution 	repo-8_price 	0
scalar abilene_nodelay_network.content_distribution 	repo-9_card 	91264
scalar abilene_nodelay_network.content_distribution 	repo-9_price 	0
scalar abilene_nodelay_network.content_distribution 	repo-10_card 	90706
scalar abilene_nodelay_network.content_distribution 	repo-10_price 	0
scalar abilene_nodelay_network.statistics 	stabilization_time 	289.5
scalar abilene_nodelay_network.statistics 	p_hit 	0.28848619787703
scalar abilene_nodelay_network.statistics 	interests 	345263.09090909
scalar abilene_nodelay_network.statistics 	data 	165285.45454545
scalar abilene_nodelay_network.statistics 	hdistance 	1.3650237014053
scalar abilene_nodelay_network.statistics 	avg_time 	0
scalar abilene_nodelay_network.statistics 	downloads 	1979754
scalar abilene_nodelay_network.statistics 	total_cost 	0
scalar abilene_nodelay_network.statistics 	total_replicas 	1000000
scalar abilene_nodelay_network.statistics 	"representations_downloaded 1:" 	0
scalar abilene_nodelay_network.statistics 	"slots_per_representation 100:" 	0
scalar abilene_nodelay_network.statistics 	inner_hit 	0.55342229388096
scalar abilene_nodelay_network.statistics 	execution_time 	87
scalar abilene_nodelay_network.node[0].core_layer 	interests[0] 	240686
scalar abilene_nodelay_network.node[0].core_layer 	repo_load[0] 	75137
scalar abilene_nodelay_network.node[0].core_layer 	data[0] 	71928
scalar abilene_nodelay_network.node[0].core_layer 	slots_sent[face$o[1]->client[0]] 	17976800
scalar abilene_nodelay_network.node[0].core_layer 	slots_sent[face$o[2]->node[1]] 	4734700
scalar abilene_nodelay_network.node[0].core_layer 	slots_sent[face$o[3]->node[10]] 	1357100
scalar abilene_nodelay_network.node[0].content_store 	p_hit[0] 	0.38897567785413
scalar abilene_nodelay_network.node[0].content_store 	hits[0] 	93621
scalar abilene_nodelay_network.node[0].content_store 	misses[0] 	147065
scalar abilene_nodelay_network.node[0].content_store 	decision_yes[0] 	71928
scalar abilene_nodelay_network.node[0].content_store 	decision_no[0] 	75137
scalar abilene_nodelay_network.node[0].content_store 	decision_ratio[0] 	0.48908985822595
scalar abilene_nodelay_network.node[1].core_layer 	interests[1] 	399049
scalar abilene_nodelay_network.node[1].core_layer 	repo_load[1] 	91283
scalar abilene_nodelay_network.node[1].core_layer 	data[1] 	214550
scalar abilene_nodelay_network.node[1].core_layer 	slots_sent[face$o[1]->client[1]] 	17955800
scalar abilene_nodelay_network.node[1].core_layer 	slots_sent[face$o[2]->node[0]] 	5758400
scalar abilene_nodelay_network.node[1].core_layer 	slots_sent[face$o[3]->node[10]] 	4440100
scalar abilene_nodelay_network.node[1].core_layer 	slots_sent[face$o[4]->node[2]] 	11750600
scalar abilene_nodelay_network.node[1].content_store 	p_hit[1] 	0.23359537299931
scalar abilene_nodelay_network.node[1].content_store 	hits[1] 	93216
scalar abilene_nodelay_network.node[1].content_store 	misses[1] 	305833
scalar abilene_nodelay_network.node[1].content_store 	decision_yes[1] 	214550
scalar abilene_nodelay_network.node[1].content_store 	decision_no[1] 	91283
scalar abilene_nodelay_network.node[1].content_store 	decision_ratio[1] 	0.70152665016529
scalar abilene_nodelay_network.node[2].core_layer 	interests[2] 	519486
scalar abilene_nodelay_network.node[2].core_layer 	repo_load[2] 	84020
scalar abilene_nodelay_network.node[2].core_layer 	data[2] 	324117
scalar abilene_nodelay_network.node[2].core_layer 	slots_sent[face$o[1]->client[2]] 	17972300
scalar abilene_nodelay_network.node[2].core_layer 	slots_sent[face$o[2]->node[1]] 	12712000
scalar abilene_nodelay_network.node[2].core_layer 	slots_sent[face$o[3]->node[3]] 	15184700
scalar abilene_nodelay_network.node[2].core_layer 	slots_sent[face$o[4]->node[8]] 	6079600
scalar abilene_nodelay_network.node[2].content_store 	p_hit[2] 	0.21434456366485
scalar abilene_nodelay_network.node[2].content_store 	hits[2] 	111349
scalar abilene_nodelay_network.node[2].content_store 	misses[2] 	408137
scalar abilene_nodelay_network.node[2].content_store 	decision_yes[2] 	324117
scalar abilene_nodelay_network.node[2].content_store 	decision_no[2] 	84020
scalar abilene_nodelay_network.node[2].content_store 	decision_ratio[2] 	0.79413775276439
scalar abilene_nodelay_network.node[3].core_layer 	interests[3] 	491194
scalar abilene_nodelay_network.node[3].core_layer 	repo_load[3] 	85649
scalar abilene_nodelay_network.node[3].core_layer 	data[3] 	296917
scalar abilene_nodelay_network.node[3].core_layer 	slots_sent[face$o[1]->client[3]] 	18039600
scalar abilene_nodelay_network.node[3].core_layer 	slots_sent[face$o[2]->node[2]] 	14983100
scalar abilene_nodelay_network.node[3].core_layer 	slots_sent[face$o[3]->node[4]] 	9337300
scalar abilene_nodelay_network.node[3].core_layer 	slots_sent[face$o[4]->node[7]] 	6759400
scalar abilene_nodelay_network.node[3].content_store 	p_hit[3] 	0.22115090982382
scalar abilene_nodelay_network.node[3].content_store 	hits[3] 	108628
scalar abilene_nodelay_network.node[3].content_store 	misses[3] 	382566
scalar abilene_nodelay_network.node[3].content_store 	decision_yes[3] 	296917
scalar abilene_nodelay_network.node[3].content_store 	decision_no[3] 	85649
scalar abilene_nodelay_network.node[3].content_store 	decision_ratio[3] 	0.77611967608204
scalar abilene_nodelay_network.node[4].core_layer 	interests[4] 	314058
scalar abilene_nodelay_network.node[4].core_layer 	repo_load[4] 	79611
scalar abilene_nodelay_network.node[4].core_layer 	data[4] 	135396
scalar abilene_nodelay_network.node[4].core_layer 	slots_sent[face$o[1]->client[4]] 	17969200
scalar abilene_nodelay_network.node[4].core_layer 	slots_sent[face$o[2]->node[3]] 	8385900
scalar abilene_nodelay_network.node[4].core_layer 	slots_sent[face$o[3]->node[5]] 	5050700
scalar abilene_nodelay_network.node[4].content_store 	p_hit[4] 	0.3153907876889
scalar abilene_nodelay_network.node[4].content_store 	hits[4] 	99051
scalar abilene_nodelay_network.node[4].content_store 	misses[4] 	215007
scalar abilene_nodelay_network.node[4].content_store 	decision_yes[4] 	135396
scalar abilene_nodelay_network.node[4].content_store 	decision_no[4] 	79611
scalar abilene_nodelay_network.node[4].content_store 	decision_ratio[4] 	0.62972833442632
scalar abilene_nodelay_network.node[5].core_layer 	interests[5] 	254304
scalar abilene_nodelay_network.node[5].core_layer 	repo_load[5] 	70312
scalar abilene_nodelay_network.node[5].core_layer 	data[5] 	85712
scalar abilene_nodelay_network.node[5].core_layer 	slots_sent[face$o[1]->client[5]] 	17992100
scalar abilene_nodelay_network.node[5].core_layer 	slots_sent[face$o[2]->node[4]] 	4202300
scalar abilene_nodelay_network.node[5].core_layer 	slots_sent[face$o[3]->node[6]] 	3236000
scalar abilene_nodelay_network.node[5].content_store 	p_hit[5] 	0.38646659116648
scalar abilene_nodelay_network.node[5].content_store 	hits[5] 	98280
scalar abilene_nodelay_network.node[5].content_store 	misses[5] 	156024
scalar abilene_nodelay_network.node[5].content_store 	decision_yes[5] 	85712
scalar abilene_nodelay_network.node[5].content_store 	decision_no[5] 	70312
scalar abilene_nodelay_network.node[5].content_store 	decision_ratio[5] 	0.54935138183869
scalar abilene_nodelay_network.node[6].core_layer 	interests[6] 	281542
scalar abilene_nodelay_network.node[6].core_layer 	repo_load[6] 	81453
scalar abilene_nodelay_network.node[6].core_layer 	data[6] 	111821
scalar abilene_nodelay_network.node[6].core_layer 	slots_sent[face$o[1]->client[6]] 	17966000
scalar abilene_nodelay_network.node[6].core_layer 	slots_sent[face$o[2]->node[5]] 	3520500
scalar abilene_nodelay_network.node[6].core_layer 	slots_sent[face$o[3]->node[7]] 	6667700
scalar abilene_nodelay_network.node[6].content_store 	p_hit[6] 	0.31351627821071
scalar abilene_nodelay_network.node[6].content_store 	hits[6] 	88268
scalar abilene_nodelay_network.node[6].content_store 	misses[6] 	193274
scalar abilene_nodelay_network.node[6].content_store 	decision_yes[6] 	111821
scalar abilene_nodelay_network.node[6].content_store 	decision_no[6] 	81453
scalar abilene_nodelay_network.node[6].content_store 	decision_ratio[6] 	0.5785620414541
scalar abilene_nodelay_network.node[7].core_layer 	interests[7] 	375200
scalar abilene_nodelay_network.node[7].core_layer 	repo_load[7] 	79935
scalar abilene_nodelay_network.node[7].core_layer 	data[7] 	189390
scalar abilene_nodelay_network.node[7].core_layer 	slots_sent[face$o[1]->client[7]] 	17993000
scalar abilene_nodelay_network.node[7].core_layer 	slots_sent[face$o[2]->node[3]] 	6121100
scalar abilene_nodelay_network.node[7].core_layer 	slots_sent[face$o[3]->node[6]] 	7946100
scalar abilene_nodelay_network.node[7].core_layer 	slots_sent[face$o[4]->node[8]] 	5459800
scalar abilene_nodelay_network.node[7].content_store 	p_hit[7] 	0.2821828358209
scalar abilene_nodelay_network.node[7].content_store 	hits[7] 	105875
scalar abilene_nodelay_network.node[7].content_store 	misses[7] 	269325
scalar abilene_nodelay_network.node[7].content_store 	decision_yes[7] 	189390
scalar abilene_nodelay_network.node[7].content_store 	decision_no[7] 	79935
scalar abilene_nodelay_network.node[7].content_store 	decision_ratio[7] 	0.70320245057087
scalar abilene_nodelay_network.node[8].core_layer 	interests[8] 	364328
scalar abilene_nodelay_network.node[8].core_layer 	repo_load[8] 	83468
scalar abilene_nodelay_network.node[8].core_layer 	data[8] 	177265
scalar abilene_nodelay_network.node[8].core_layer 	slots_sent[face$o[1]->client[8]] 	18027400
scalar abilene_nodelay_network.node[8].core_layer 	slots_sent[face$o[2]->node[2]] 	5678000
scalar abilene_nodelay_network.node[8].core_layer 	slots_sent[face$o[3]->node[7]] 	5511900
scalar abilene_nodelay_network.node[8].core_layer 	slots_sent[face$o[4]->node[9]] 	7215500
scalar abilene_nodelay_network.node[8].content_store 	p_hit[8] 	0.28434542500165
scalar abilene_nodelay_network.node[8].content_store 	hits[8] 	103595
scalar abilene_nodelay_network.node[8].content_store 	misses[8] 	260733
scalar abilene_nodelay_network.node[8].content_store 	decision_yes[8] 	177265
scalar abilene_nodelay_network.node[8].content_store 	decision_no[8] 	83468
scalar abilene_nodelay_network.node[8].content_store 	decision_ratio[8] 	0.67987174619247
scalar abilene_nodelay_network.node[9].core_layer 	interests[9] 	283692
scalar abilene_nodelay_network.node[9].core_layer 	repo_load[9] 	76232
scalar abilene_nodelay_network.node[9].core_layer 	data[9] 	111981
scalar abilene_nodelay_network.node[9].core_layer 	slots_sent[face$o[1]->client[9]] 	18073000
scalar abilene_nodelay_network.node[9].core_layer 	slots_sent[face$o[2]->node[10]] 	4109100
scalar abilene_nodelay_network.node[9].core_layer 	slots_sent[face$o[3]->node[8]] 	6187100
scalar abilene_nodelay_network.node[9].content_store 	p_hit[9] 	0.33655866221113
scalar abilene_nodelay_network.node[9].content_store 	hits[9] 	95479
scalar abilene_nodelay_network.node[9].content_store 	misses[9] 	188213
scalar abilene_nodelay_network.node[9].content_store 	decision_yes[9] 	111981
scalar abilene_nodelay_network.node[9].content_store 	decision_no[9] 	76232
scalar abilene_nodelay_network.node[9].content_store 	decision_ratio[9] 	0.59496952920362
scalar abilene_nodelay_network.node[10].core_layer 	interests[10] 	274355
scalar abilene_nodelay_network.node[10].core_layer 	repo_load[10] 	77014
scalar abilene_nodelay_network.node[10].core_layer 	data[10] 	99063
scalar abilene_nodelay_network.node[10].core_layer 	slots_sent[face$o[1]->client[10]] 	18010200
scalar abilene_nodelay_network.node[10].core_layer 	slots_sent[face$o[2]->node[0]] 	1434400
scalar abilene_nodelay_network.node[10].core_layer 	slots_sent[face$o[3]->node[1]] 	4008300
scalar abilene_nodelay_network.node[10].core_layer 	slots_sent[face$o[4]->node[9]] 	3982600
scalar abilene_nodelay_network.node[10].content_store 	p_hit[10] 	0.35821472180204
scalar abilene_nodelay_network.node[10].content_store 	hits[10] 	98278
scalar abilene_nodelay_network.node[10].content_store 	misses[10] 	176077
scalar abilene_nodelay_network.node[10].content_store 	decision_yes[10] 	99063
scalar abilene_nodelay_network.node[10].content_store 	decision_no[10] 	77014
scalar abilene_nodelay_network.node[10].content_store 	decision_ratio[10] 	0.56261181187776
scalar abilene_nodelay_network.client[0] 	hdistance[0].real 	1.4952049307997
scalar abilene_nodelay_network.client[0] 	downloads[0].real 	179768
scalar abilene_nodelay_network.client[0] 	avg_time[0].real 	0
scalar abilene_nodelay_network.client[1] 	hdistance[1].real 	1.4084696866751
scalar abilene_nodelay_network.client[1] 	downloads[1].real 	179558
scalar abilene_nodelay_network.client[1] 	avg_time[1].real 	0
scalar abilene_nodelay_network.client[2] 	hdistance[2].real 	1.2320960589351
scalar abilene_nodelay_network.client[2] 	downloads[2].real 	179723
scalar abilene_nodelay_network.client[2] 	avg_time[2].real 	0
scalar abilene_nodelay_network.client[3] 	hdistance[3].real 	1.2704660857225
scalar abilene_nodelay_network.client[3] 	downloads[3].real 	180396
scalar abilene_nodelay_network.client[3] 	avg_time[3].real 	0
scalar abilene_nodelay_network.client[4] 	hdistance[4].real 	1.4243483293636
scalar abilene_nodelay_network.client[4] 	downloads[4].real 	179692
scalar abilene_nodelay_network.client[4] 	avg_time[4].real 	0
scalar abilene_nodelay_network.client[5] 	hdistance[5].real 	1.4867302871816
scalar abilene_nodelay_network.client[5] 	downloads[5].real 	179921
scalar abilene_nodelay_network.client[5] 	avg_time[5].real 	0
scalar abilene_nodelay_network.client[6] 	hdistance[6].real 	1.4845819881999
scalar abilene_nodelay_network.client[6] 	downloads[6].real 	179660
scalar abilene_nodelay_network.client[6] 	avg_time[6].real 	0
scalar abilene_nodelay_network.client[7] 	hdistance[7].real 	1.2526760406825
scalar abilene_nodelay_network.client[7] 	downloads[7].real 	179930
scalar abilene_nodelay_network.client[7] 	avg_time[7].real 	0
scalar abilene_nodelay_network.client[8] 	hdistance[8].real 	1.2204976868545
scalar abilene_nodelay_network.client[8] 	downloads[8].real 	180274
scalar abilene_nodelay_network.client[8] 	avg_time[8].real 	0
scalar abilene_nodelay_network.client[9] 	hdistance[9].real 	1.3524982017374
scalar abilene_nodelay_network.client[9] 	downloads[9].real 	180730
scalar abilene_nodelay_network.client[9] 	avg_time[9].real 	0
scalar abilene_nodelay_network.client[10] 	hdistance[10].real 	1.3876914193068
scalar abilene_nodelay_network.client[10] 	downloads[10].real 	180102
scalar abilene_nodelay_network.client[10] 	avg_time[10].real 	0
