version 2
run General-14-20150720-19:05:10-16178
attr C 1e4
attr D lce
attr F spr
attr R lru
attr a 1
attr brates 1
attr configname General
attr ctlg 1e6
attr datetime 20150720-19:05:10
attr experiment General
attr inifile omnetpp.ini
attr iterationvars "$net=abilene_nodelay, $rep=7, $lambda=100, $a=1, $ctlg=1e6, $brates=1, $F=spr, $ttl=1000, $D=lce, $R=lru, $C=1e4, $window=60, $variance=0.05, $mytime=1800"
attr iterationvars2 "$net=abilene_nodelay, $rep=7, $lambda=100, $a=1, $ctlg=1e6, $brates=1, $F=spr, $ttl=1000, $D=lce, $R=lru, $C=1e4, $window=60, $variance=0.05, $mytime=1800, $repetition=0"
attr lambda 100
attr measurement "$net=abilene_nodelay, $rep=7, $lambda=100, $a=1, $ctlg=1e6, $brates=1, $F=spr, $ttl=1000, $D=lce, $R=lru, $C=1e4, $window=60, $variance=0.05, $mytime=1800"
attr mytime 1800
attr net abilene_nodelay
attr network networks.${net=abilene_nodelay}_network
attr processid 16178
attr rep 7
attr repetition 0
attr replication #0
attr resultdir results
attr runnumber 14
attr seedset 7
attr ttl 1000
attr variance 0.05
attr window 60

scalar . 	C 	1e4
scalar . 	a 	1
scalar . 	brates 	1
scalar . 	ctlg 	1e6
scalar . 	lambda 	100
scalar . 	mytime 	1800
scalar . 	rep 	7
scalar . 	ttl 	1000
scalar . 	variance 	0.05
scalar . 	window 	60
scalar abilene_nodelay_network.content_distribution 	repo-0 	5
scalar abilene_nodelay_network.content_distribution 	repo-1 	4
scalar abilene_nodelay_network.content_distribution 	repo-2 	0
scalar abilene_nodelay_network.content_distribution 	repo-3 	6
scalar abilene_nodelay_network.content_distribution 	repo-4 	8
scalar abilene_nodelay_network.content_distribution 	repo-5 	2
scalar abilene_nodelay_network.content_distribution 	repo-6 	10
scalar abilene_nodelay_network.content_distribution 	repo-7 	7
scalar abilene_nodelay_network.content_distribution 	repo-8 	9
scalar abilene_nodelay_network.content_distribution 	repo-9 	1
scalar abilene_nodelay_network.content_distribution 	repo-10 	3
scalar abilene_nodelay_network.content_distribution 	client-0 	3
scalar abilene_nodelay_network.content_distribution 	client-1 	2
scalar abilene_nodelay_network.content_distribution 	client-2 	7
scalar abilene_nodelay_network.content_distribution 	client-3 	10
scalar abilene_nodelay_network.content_distribution 	client-4 	9
scalar abilene_nodelay_network.content_distribution 	client-5 	4
scalar abilene_nodelay_network.content_distribution 	client-6 	1
scalar abilene_nodelay_network.content_distribution 	client-7 	0
scalar abilene_nodelay_network.content_distribution 	client-8 	5
scalar abilene_nodelay_network.content_distribution 	client-9 	6
scalar abilene_nodelay_network.content_distribution 	client-10 	8
scalar abilene_nodelay_network.content_distribution 	repo-0_card 	90427
scalar abilene_nodelay_network.content_distribution 	repo-0_price 	0
scalar abilene_nodelay_network.content_distribution 	repo-1_card 	90791
scalar abilene_nodelay_network.content_distribution 	repo-1_price 	0
scalar abilene_nodelay_network.content_distribution 	repo-2_card 	91145
scalar abilene_nodelay_network.content_distribution 	repo-2_price 	0
scalar abilene_nodelay_network.content_distribution 	repo-3_card 	90716
scalar abilene_nodelay_network.content_distribution 	repo-3_price 	0
scalar abilene_nodelay_network.content_distribution 	repo-4_card 	91056
scalar abilene_nodelay_network.content_distribution 	repo-4_price 	0
scalar abilene_nodelay_network.content_distribution 	repo-5_card 	90898
scalar abilene_nodelay_network.content_distribution 	repo-5_price 	0
scalar abilene_nodelay_network.content_distribution 	repo-6_card 	90938
scalar abilene_nodelay_network.content_distribution 	repo-6_price 	0
scalar abilene_nodelay_network.content_distribution 	repo-7_card 	90969
scalar abilene_nodelay_network.content_distribution 	repo-7_price 	0
scalar abilene_nodelay_network.content_distribution 	repo-8_card 	91217
scalar abilene_nodelay_network.content_distribution 	repo-8_price 	0
scalar abilene_nodelay_network.content_distribution 	repo-9_card 	91141
scalar abilene_nodelay_network.content_distribution 	repo-9_price 	0
scalar abilene_nodelay_network.content_distribution 	repo-10_card 	90702
scalar abilene_nodelay_network.content_distribution 	repo-10_price 	0
scalar abilene_nodelay_network.statistics 	stabilization_time 	292.6
scalar abilene_nodelay_network.statistics 	p_hit 	0.28816006274906
scalar abilene_nodelay_network.statistics 	interests 	345387.27272727
scalar abilene_nodelay_network.statistics 	data 	165513.36363636
scalar abilene_nodelay_network.statistics 	hdistance 	1.3668631290054
scalar abilene_nodelay_network.statistics 	avg_time 	0
scalar abilene_nodelay_network.statistics 	downloads 	1978613
scalar abilene_nodelay_network.statistics 	total_cost 	0
scalar abilene_nodelay_network.statistics 	total_replicas 	1000000
scalar abilene_nodelay_network.statistics 	"representations_downloaded 1:" 	0
scalar abilene_nodelay_network.statistics 	"slots_per_representation 100:" 	0
scalar abilene_nodelay_network.statistics 	inner_hit 	0.5533143671855
scalar abilene_nodelay_network.statistics 	execution_time 	72
scalar abilene_nodelay_network.node[0].core_layer 	interests[0] 	240147
scalar abilene_nodelay_network.node[0].core_layer 	repo_load[0] 	73444
scalar abilene_nodelay_network.node[0].core_layer 	data[0] 	72103
scalar abilene_nodelay_network.node[0].core_layer 	slots_sent[face$o[1]->client[0]] 	17946900
scalar abilene_nodelay_network.node[0].core_layer 	slots_sent[face$o[2]->node[1]] 	4729400
scalar abilene_nodelay_network.node[0].core_layer 	slots_sent[face$o[3]->node[10]] 	1338400
scalar abilene_nodelay_network.node[0].content_store 	p_hit[0] 	0.3939253873669
scalar abilene_nodelay_network.node[0].content_store 	hits[0] 	94600
scalar abilene_nodelay_network.node[0].content_store 	misses[0] 	145547
scalar abilene_nodelay_network.node[0].content_store 	decision_yes[0] 	72103
scalar abilene_nodelay_network.node[0].content_store 	decision_no[0] 	73444
scalar abilene_nodelay_network.node[0].content_store 	decision_ratio[0] 	0.4953932406714
scalar abilene_nodelay_network.node[1].core_layer 	interests[1] 	398938
scalar abilene_nodelay_network.node[1].core_layer 	repo_load[1] 	79388
scalar abilene_nodelay_network.node[1].core_layer 	data[1] 	214836
scalar abilene_nodelay_network.node[1].core_layer 	slots_sent[face$o[1]->client[1]] 	17994600
scalar abilene_nodelay_network.node[1].core_layer 	slots_sent[face$o[2]->node[0]] 	5763200
scalar abilene_nodelay_network.node[1].core_layer 	slots_sent[face$o[3]->node[10]] 	4411100
scalar abilene_nodelay_network.node[1].core_layer 	slots_sent[face$o[4]->node[2]] 	11724900
scalar abilene_nodelay_network.node[1].content_store 	p_hit[1] 	0.2624818894164
scalar abilene_nodelay_network.node[1].content_store 	hits[1] 	104714
scalar abilene_nodelay_network.node[1].content_store 	misses[1] 	294224
scalar abilene_nodelay_network.node[1].content_store 	decision_yes[1] 	214836
scalar abilene_nodelay_network.node[1].content_store 	decision_no[1] 	79388
scalar abilene_nodelay_network.node[1].content_store 	decision_ratio[1] 	0.73017836750231
scalar abilene_nodelay_network.node[2].core_layer 	interests[2] 	517900
scalar abilene_nodelay_network.node[2].core_layer 	repo_load[2] 	86440
scalar abilene_nodelay_network.node[2].core_layer 	data[2] 	322276
scalar abilene_nodelay_network.node[2].core_layer 	slots_sent[face$o[1]->client[2]] 	17880800
scalar abilene_nodelay_network.node[2].core_layer 	slots_sent[face$o[2]->node[1]] 	12697200
scalar abilene_nodelay_network.node[2].core_layer 	slots_sent[face$o[3]->node[3]] 	15191900
scalar abilene_nodelay_network.node[2].core_layer 	slots_sent[face$o[4]->node[8]] 	6020100
scalar abilene_nodelay_network.node[2].content_store 	p_hit[2] 	0.21082062174165
scalar abilene_nodelay_network.node[2].content_store 	hits[2] 	109184
scalar abilene_nodelay_network.node[2].content_store 	misses[2] 	408716
scalar abilene_nodelay_network.node[2].content_store 	decision_yes[2] 	322276
scalar abilene_nodelay_network.node[2].content_store 	decision_no[2] 	86440
scalar abilene_nodelay_network.node[2].content_store 	decision_ratio[2] 	0.78850840192212
scalar abilene_nodelay_network.node[3].core_layer 	interests[3] 	489213
scalar abilene_nodelay_network.node[3].core_layer 	repo_load[3] 	82927
scalar abilene_nodelay_network.node[3].core_layer 	data[3] 	297126
scalar abilene_nodelay_network.node[3].core_layer 	slots_sent[face$o[1]->client[3]] 	18036100
scalar abilene_nodelay_network.node[3].core_layer 	slots_sent[face$o[2]->node[2]] 	14864500
scalar abilene_nodelay_network.node[3].core_layer 	slots_sent[face$o[3]->node[4]] 	9353100
scalar abilene_nodelay_network.node[3].core_layer 	slots_sent[face$o[4]->node[7]] 	6667600
scalar abilene_nodelay_network.node[3].content_store 	p_hit[3] 	0.22313389055483
scalar abilene_nodelay_network.node[3].content_store 	hits[3] 	109160
scalar abilene_nodelay_network.node[3].content_store 	misses[3] 	380053
scalar abilene_nodelay_network.node[3].content_store 	decision_yes[3] 	297126
scalar abilene_nodelay_network.node[3].content_store 	decision_no[3] 	82927
scalar abilene_nodelay_network.node[3].content_store 	decision_ratio[3] 	0.78180148558227
scalar abilene_nodelay_network.node[4].core_layer 	interests[4] 	312750
scalar abilene_nodelay_network.node[4].core_layer 	repo_load[4] 	89489
scalar abilene_nodelay_network.node[4].core_layer 	data[4] 	136942
scalar abilene_nodelay_network.node[4].core_layer 	slots_sent[face$o[1]->client[4]] 	17941900
scalar abilene_nodelay_network.node[4].core_layer 	slots_sent[face$o[2]->node[3]] 	8316500
scalar abilene_nodelay_network.node[4].core_layer 	slots_sent[face$o[3]->node[5]] 	5016600
scalar abilene_nodelay_network.node[4].content_store 	p_hit[4] 	0.276
scalar abilene_nodelay_network.node[4].content_store 	hits[4] 	86319
scalar abilene_nodelay_network.node[4].content_store 	misses[4] 	226431
scalar abilene_nodelay_network.node[4].content_store 	decision_yes[4] 	136942
scalar abilene_nodelay_network.node[4].content_store 	decision_no[4] 	89489
scalar abilene_nodelay_network.node[4].content_store 	decision_ratio[4] 	0.60478468054286
scalar abilene_nodelay_network.node[5].core_layer 	interests[5] 	255940
scalar abilene_nodelay_network.node[5].core_layer 	repo_load[5] 	73111
scalar abilene_nodelay_network.node[5].core_layer 	data[5] 	85874
scalar abilene_nodelay_network.node[5].core_layer 	slots_sent[face$o[1]->client[5]] 	18025100
scalar abilene_nodelay_network.node[5].core_layer 	slots_sent[face$o[2]->node[4]] 	4341100
scalar abilene_nodelay_network.node[5].core_layer 	slots_sent[face$o[3]->node[6]] 	3227800
scalar abilene_nodelay_network.node[5].content_store 	p_hit[5] 	0.37881925451278
scalar abilene_nodelay_network.node[5].content_store 	hits[5] 	96955
scalar abilene_nodelay_network.node[5].content_store 	misses[5] 	158985
scalar abilene_nodelay_network.node[5].content_store 	decision_yes[5] 	85874
scalar abilene_nodelay_network.node[5].content_store 	decision_no[5] 	73111
scalar abilene_nodelay_network.node[5].content_store 	decision_ratio[5] 	0.54013900682454
scalar abilene_nodelay_network.node[6].core_layer 	interests[6] 	283789
scalar abilene_nodelay_network.node[6].core_layer 	repo_load[6] 	76615
scalar abilene_nodelay_network.node[6].core_layer 	data[6] 	111664
scalar abilene_nodelay_network.node[6].core_layer 	slots_sent[face$o[1]->client[6]] 	17961600
scalar abilene_nodelay_network.node[6].core_layer 	slots_sent[face$o[2]->node[5]] 	3570800
scalar abilene_nodelay_network.node[6].core_layer 	slots_sent[face$o[3]->node[7]] 	6846500
scalar abilene_nodelay_network.node[6].content_store 	p_hit[6] 	0.33655286145693
scalar abilene_nodelay_network.node[6].content_store 	hits[6] 	95510
scalar abilene_nodelay_network.node[6].content_store 	misses[6] 	188279
scalar abilene_nodelay_network.node[6].content_store 	decision_yes[6] 	111664
scalar abilene_nodelay_network.node[6].content_store 	decision_no[6] 	76615
scalar abilene_nodelay_network.node[6].content_store 	decision_ratio[6] 	0.5930772948656
scalar abilene_nodelay_network.node[7].core_layer 	interests[7] 	376474
scalar abilene_nodelay_network.node[7].core_layer 	repo_load[7] 	78534
scalar abilene_nodelay_network.node[7].core_layer 	data[7] 	190599
scalar abilene_nodelay_network.node[7].core_layer 	slots_sent[face$o[1]->client[7]] 	17946900
scalar abilene_nodelay_network.node[7].core_layer 	slots_sent[face$o[2]->node[3]] 	6204200
scalar abilene_nodelay_network.node[7].core_layer 	slots_sent[face$o[3]->node[6]] 	7938600
scalar abilene_nodelay_network.node[7].core_layer 	slots_sent[face$o[4]->node[8]] 	5557700
scalar abilene_nodelay_network.node[7].content_store 	p_hit[7] 	0.28512194733235
scalar abilene_nodelay_network.node[7].content_store 	hits[7] 	107341
scalar abilene_nodelay_network.node[7].content_store 	misses[7] 	269133
scalar abilene_nodelay_network.node[7].content_store 	decision_yes[7] 	190599
scalar abilene_nodelay_network.node[7].content_store 	decision_no[7] 	78534
scalar abilene_nodelay_network.node[7].content_store 	decision_ratio[7] 	0.70819631929195
scalar abilene_nodelay_network.node[8].core_layer 	interests[8] 	364946
scalar abilene_nodelay_network.node[8].core_layer 	repo_load[8] 	80152
scalar abilene_nodelay_network.node[8].core_layer 	data[8] 	177868
scalar abilene_nodelay_network.node[8].core_layer 	slots_sent[face$o[1]->client[8]] 	18054500
scalar abilene_nodelay_network.node[8].core_layer 	slots_sent[face$o[2]->node[2]] 	5638200
scalar abilene_nodelay_network.node[8].core_layer 	slots_sent[face$o[3]->node[7]] 	5545800
scalar abilene_nodelay_network.node[8].core_layer 	slots_sent[face$o[4]->node[9]] 	7256100
scalar abilene_nodelay_network.node[8].content_store 	p_hit[8] 	0.29299129186236
scalar abilene_nodelay_network.node[8].content_store 	hits[8] 	106926
scalar abilene_nodelay_network.node[8].content_store 	misses[8] 	258020
scalar abilene_nodelay_network.node[8].content_store 	decision_yes[8] 	177868
scalar abilene_nodelay_network.node[8].content_store 	decision_no[8] 	80152
scalar abilene_nodelay_network.node[8].content_store 	decision_ratio[8] 	0.68935741415394
scalar abilene_nodelay_network.node[9].core_layer 	interests[9] 	284441
scalar abilene_nodelay_network.node[9].core_layer 	repo_load[9] 	83526
scalar abilene_nodelay_network.node[9].core_layer 	data[9] 	112202
scalar abilene_nodelay_network.node[9].core_layer 	slots_sent[face$o[1]->client[9]] 	18068900
scalar abilene_nodelay_network.node[9].core_layer 	slots_sent[face$o[2]->node[10]] 	4166200
scalar abilene_nodelay_network.node[9].core_layer 	slots_sent[face$o[3]->node[8]] 	6209000
scalar abilene_nodelay_network.node[9].content_store 	p_hit[9] 	0.31188541736248
scalar abilene_nodelay_network.node[9].content_store 	hits[9] 	88713
scalar abilene_nodelay_network.node[9].content_store 	misses[9] 	195728
scalar abilene_nodelay_network.node[9].content_store 	decision_yes[9] 	112202
scalar abilene_nodelay_network.node[9].content_store 	decision_no[9] 	83526
scalar abilene_nodelay_network.node[9].content_store 	decision_ratio[9] 	0.57325472083708
scalar abilene_nodelay_network.node[10].core_layer 	interests[10] 	274722
scalar abilene_nodelay_network.node[10].core_layer 	repo_load[10] 	80192
scalar abilene_nodelay_network.node[10].core_layer 	data[10] 	99157
scalar abilene_nodelay_network.node[10].core_layer 	slots_sent[face$o[1]->client[10]] 	18004000
scalar abilene_nodelay_network.node[10].core_layer 	slots_sent[face$o[2]->node[0]] 	1447100
scalar abilene_nodelay_network.node[10].core_layer 	slots_sent[face$o[3]->node[1]] 	4057000
scalar abilene_nodelay_network.node[10].core_layer 	slots_sent[face$o[4]->node[9]] 	3964100
scalar abilene_nodelay_network.node[10].content_store 	p_hit[10] 	0.34716185816935
scalar abilene_nodelay_network.node[10].content_store 	hits[10] 	95373
scalar abilene_nodelay_network.node[10].content_store 	misses[10] 	179349
scalar abilene_nodelay_network.node[10].content_store 	decision_yes[10] 	99157
scalar abilene_nodelay_network.node[10].content_store 	decision_no[10] 	80192
scalar abilene_nodelay_network.node[10].content_store 	decision_ratio[10] 	0.55287177514232
scalar abilene_nodelay_network.client[0] 	hdistance[0].real 	1.4915890766651
scalar abilene_nodelay_network.client[0] 	downloads[0].real 	179469
scalar abilene_nodelay_network.client[0] 	avg_time[0].real 	0
scalar abilene_nodelay_network.client[1] 	hdistance[1].real 	1.3519278005624
scalar abilene_nodelay_network.client[1] 	downloads[1].real 	179946
scalar abilene_nodelay_network.client[1] 	avg_time[1].real 	0
scalar abilene_nodelay_network.client[2] 	hdistance[2].real 	1.2373551518948
scalar abilene_nodelay_network.client[2] 	downloads[2].real 	178808
scalar abilene_nodelay_network.client[2] 	avg_time[2].real 	0
scalar abilene_nodelay_network.client[3] 	hdistance[3].real 	1.2659056004347
scalar abilene_nodelay_network.client[3] 	downloads[3].real 	180361
scalar abilene_nodelay_network.client[3] 	avg_time[3].real 	0
scalar abilene_nodelay_network.client[4] 	hdistance[4].real 	1.5001978608731
scalar abilene_nodelay_network.client[4] 	downloads[4].real 	179419
scalar abilene_nodelay_network.client[4] 	avg_time[4].real 	0
scalar abilene_nodelay_network.client[5] 	hdistance[5].real 	1.4980332980122
scalar abilene_nodelay_network.client[5] 	downloads[5].real 	180251
scalar abilene_nodelay_network.client[5] 	avg_time[5].real 	0
scalar abilene_nodelay_network.client[6] 	hdistance[6].real 	1.4462520042758
scalar abilene_nodelay_network.client[6] 	downloads[6].real 	179616
scalar abilene_nodelay_network.client[6] 	avg_time[6].real 	0
scalar abilene_nodelay_network.client[7] 	hdistance[7].real 	1.244772077629
scalar abilene_nodelay_network.client[7] 	downloads[7].real 	179469
scalar abilene_nodelay_network.client[7] 	avg_time[7].real 	0
scalar abilene_nodelay_network.client[8] 	hdistance[8].real 	1.2034949735523
scalar abilene_nodelay_network.client[8] 	downloads[8].real 	180545
scalar abilene_nodelay_network.client[8] 	avg_time[8].real 	0
scalar abilene_nodelay_network.client[9] 	hdistance[9].real 	1.3916453132177
scalar abilene_nodelay_network.client[9] 	downloads[9].real 	180689
scalar abilene_nodelay_network.client[9] 	avg_time[9].real 	0
scalar abilene_nodelay_network.client[10] 	hdistance[10].real 	1.4043212619418
scalar abilene_nodelay_network.client[10] 	downloads[10].real 	180040
scalar abilene_nodelay_network.client[10] 	avg_time[10].real 	0
