version 2
run General-31-20150316-17:32:25-2891
attr D fix0.01
attr F nrr
attr R lru
attr a 1
attr configname General
attr csize 1e3
attr ctlg 1e5
attr datetime 20150316-17:32:25
attr experiment General
attr inifile omnetpp.ini
attr iterationvars "$rep=33, $net=cost_scenario, $lambda=100, $a=1, $ctlg=1e5, $F=nrr, $ttl=10, $D=fix0.01, $R=lru, $csize=1e3, $window=60, $variance=0.05, $mytime=18000, $kappa=1, $priceratiovalue=2, $splits=0.333_0.333_0.334, $pricebits=0"
attr iterationvars2 "$rep=33, $net=cost_scenario, $lambda=100, $a=1, $ctlg=1e5, $F=nrr, $ttl=10, $D=fix0.01, $R=lru, $csize=1e3, $window=60, $variance=0.05, $mytime=18000, $kappa=1, $priceratiovalue=2, $splits=0.333_0.333_0.334, $pricebits=0, $repetition=0"
attr kappa 1
attr lambda 100
attr measurement "$rep=33, $net=cost_scenario, $lambda=100, $a=1, $ctlg=1e5, $F=nrr, $ttl=10, $D=fix0.01, $R=lru, $csize=1e3, $window=60, $variance=0.05, $mytime=18000, $kappa=1, $priceratiovalue=2, $splits=0.333_0.333_0.334, $pricebits=0"
attr mytime 18000
attr net cost_scenario
attr network networks.${net=cost_scenario}_network
attr pricebits 0
attr priceratiovalue 2
attr processid 2891
attr rep 33
attr repetition 0
attr replication #0
attr resultdir results
attr runnumber 31
attr seedset 33
attr splits 0.333_0.333_0.334
attr ttl 10
attr variance 0.05
attr window 60

scalar . 	a 	1
scalar . 	csize 	1e3
scalar . 	ctlg 	1e5
scalar . 	kappa 	1
scalar . 	lambda 	100
scalar . 	mytime 	18000
scalar . 	pricebits 	0
scalar . 	priceratiovalue 	2
scalar . 	rep 	33
scalar . 	ttl 	10
scalar . 	variance 	0.05
scalar . 	window 	60
scalar cost_scenario_network.content_distribution 	repo-0 	1
scalar cost_scenario_network.content_distribution 	repo-1 	2
scalar cost_scenario_network.content_distribution 	repo-2 	3
scalar cost_scenario_network.content_distribution 	client-0 	0
scalar cost_scenario_network.content_distribution 	repo-0_card 	33409
scalar cost_scenario_network.content_distribution 	repo-0_price 	0
scalar cost_scenario_network.content_distribution 	repo-1_card 	33423
scalar cost_scenario_network.content_distribution 	repo-1_price 	1
scalar cost_scenario_network.content_distribution 	repo-2_card 	33168
scalar cost_scenario_network.content_distribution 	repo-2_price 	2
scalar cost_scenario_network.statistics 	repo_popularity[0] 	0.35103770152633
scalar cost_scenario_network.statistics 	repo_popularity[1] 	0.31493222113677
scalar cost_scenario_network.statistics 	repo_popularity[2] 	0.33403007733691
scalar cost_scenario_network.statistics 	stabilization_time 	1872.8
scalar cost_scenario_network.statistics 	p_hit 	0.41425585156103
scalar cost_scenario_network.statistics 	interests 	636005.5
scalar cost_scenario_network.statistics 	data 	186268.25
scalar cost_scenario_network.statistics 	hdistance 	0.82834254889937
scalar cost_scenario_network.statistics 	avg_time 	0
scalar cost_scenario_network.statistics 	downloads 	1798949
scalar cost_scenario_network.statistics 	total_cost 	735760
scalar cost_scenario_network.statistics 	total_replicas 	100000
scalar cost_scenario_network.statistics 	inner_hit 	0.58582872555031
scalar cost_scenario_network.statistics 	interests_sent 	1798949
scalar cost_scenario_network.node[0].core_layer 	interests[0] 	1798949
scalar cost_scenario_network.node[0].core_layer 	data[0] 	745073
scalar cost_scenario_network.node[0].core_layer 	repo_int[0] 	745073
scalar cost_scenario_network.node[0].content_store 	p_hit[0] 	0.58582872555031
scalar cost_scenario_network.node[0].content_store 	hits[0] 	1053876
scalar cost_scenario_network.node[0].content_store 	misses[0] 	745073
scalar cost_scenario_network.node[0].content_store 	decision_yes[0] 	7518
scalar cost_scenario_network.node[0].content_store 	decision_no[0] 	737555
scalar cost_scenario_network.node[0].content_store 	decision_ratio[0] 	0.010090286455153
scalar cost_scenario_network.node[0].content_store 	cache_value[0] 	7.1434812297235
scalar cost_scenario_network.node[0].content_store 	average_price_of_cache[0] 	1.023
scalar cost_scenario_network.node[1].core_layer 	interests[1] 	252587
scalar cost_scenario_network.node[1].core_layer 	repo_load[1] 	252587
scalar cost_scenario_network.node[1].core_layer 	data[1] 	0
scalar cost_scenario_network.node[1].content_store 	p_hit[1] 	0
scalar cost_scenario_network.node[1].content_store 	hits[1] 	0
scalar cost_scenario_network.node[1].content_store 	misses[1] 	252587
scalar cost_scenario_network.node[1].content_store 	decision_yes[1] 	0
scalar cost_scenario_network.node[1].content_store 	decision_no[1] 	252587
scalar cost_scenario_network.node[1].content_store 	decision_ratio[1] 	0
scalar cost_scenario_network.node[1].content_store 	cache_value[1] 	2.0744591186072e-316
scalar cost_scenario_network.node[1].content_store 	average_price_of_cache[1] 	-nan
scalar cost_scenario_network.node[2].core_layer 	interests[2] 	249212
scalar cost_scenario_network.node[2].core_layer 	repo_load[2] 	249212
scalar cost_scenario_network.node[2].core_layer 	data[2] 	0
scalar cost_scenario_network.node[2].content_store 	p_hit[2] 	0
scalar cost_scenario_network.node[2].content_store 	hits[2] 	0
scalar cost_scenario_network.node[2].content_store 	misses[2] 	249212
scalar cost_scenario_network.node[2].content_store 	decision_yes[2] 	0
scalar cost_scenario_network.node[2].content_store 	decision_no[2] 	249212
scalar cost_scenario_network.node[2].content_store 	decision_ratio[2] 	0
scalar cost_scenario_network.node[2].content_store 	cache_value[2] 	2.0746180101189e-316
scalar cost_scenario_network.node[2].content_store 	average_price_of_cache[2] 	-nan
scalar cost_scenario_network.node[3].core_layer 	interests[3] 	243274
scalar cost_scenario_network.node[3].core_layer 	repo_load[3] 	243274
scalar cost_scenario_network.node[3].core_layer 	data[3] 	0
scalar cost_scenario_network.node[3].content_store 	p_hit[3] 	0
scalar cost_scenario_network.node[3].content_store 	hits[3] 	0
scalar cost_scenario_network.node[3].content_store 	misses[3] 	243274
scalar cost_scenario_network.node[3].content_store 	decision_yes[3] 	0
scalar cost_scenario_network.node[3].content_store 	decision_no[3] 	243274
scalar cost_scenario_network.node[3].content_store 	decision_ratio[3] 	0
scalar cost_scenario_network.node[3].content_store 	cache_value[3] 	2.0747769016306e-316
scalar cost_scenario_network.node[3].content_store 	average_price_of_cache[3] 	-nan
scalar cost_scenario_network.client[0] 	hdistance[0] 	0.82834254889937
scalar cost_scenario_network.client[0] 	downloads[0] 	1798949
scalar cost_scenario_network.client[0] 	avg_time[0] 	0
scalar cost_scenario_network.client[0] 	interests_sent[0] 	1798949
