version 2
run General-3-20150720-20:33:07-23877
attr C 1e6
attr D lce
attr F spr
attr R always_highq
attr a 1
attr brates 0.3_0.7_1.5_2.5_3.5
attr configname General
attr ctlg 1e8
attr datetime 20150720-20:33:07
attr experiment General
attr inifile omnetpp.ini
attr iterationvars "$net=abilene_nodelay, $rep=1, $lambda=100, $a=1, $ctlg=1e8, $brates=0.3_0.7_1.5_2.5_3.5, $F=spr, $ttl=1000, $D=lce, $R=always_highq, $C=1e6, $window=60, $variance=0.05, $mytime=180000"
attr iterationvars2 "$net=abilene_nodelay, $rep=1, $lambda=100, $a=1, $ctlg=1e8, $brates=0.3_0.7_1.5_2.5_3.5, $F=spr, $ttl=1000, $D=lce, $R=always_highq, $C=1e6, $window=60, $variance=0.05, $mytime=180000, $repetition=0"
attr lambda 100
attr measurement "$net=abilene_nodelay, $rep=1, $lambda=100, $a=1, $ctlg=1e8, $brates=0.3_0.7_1.5_2.5_3.5, $F=spr, $ttl=1000, $D=lce, $R=always_highq, $C=1e6, $window=60, $variance=0.05, $mytime=180000"
attr mytime 180000
attr net abilene_nodelay
attr network networks.${net=abilene_nodelay}_network
attr processid 23877
attr rep 1
attr repetition 0
attr replication #0
attr resultdir results
attr runnumber 3
attr seedset 1
attr ttl 1000
attr variance 0.05
attr window 60

scalar . 	C 	1e6
scalar . 	a 	1
scalar . 	ctlg 	1e8
scalar . 	lambda 	100
scalar . 	mytime 	180000
scalar . 	rep 	1
scalar . 	ttl 	1000
scalar . 	variance 	0.05
scalar . 	window 	60
scalar abilene_nodelay_network.content_distribution 	repo-0 	10
scalar abilene_nodelay_network.content_distribution 	repo-1 	7
scalar abilene_nodelay_network.content_distribution 	repo-2 	5
scalar abilene_nodelay_network.content_distribution 	repo-3 	1
scalar abilene_nodelay_network.content_distribution 	repo-4 	8
scalar abilene_nodelay_network.content_distribution 	repo-5 	2
scalar abilene_nodelay_network.content_distribution 	repo-6 	9
scalar abilene_nodelay_network.content_distribution 	repo-7 	4
scalar abilene_nodelay_network.content_distribution 	repo-8 	6
scalar abilene_nodelay_network.content_distribution 	repo-9 	3
scalar abilene_nodelay_network.content_distribution 	repo-10 	0
scalar abilene_nodelay_network.content_distribution 	client-0 	7
scalar abilene_nodelay_network.content_distribution 	client-1 	5
scalar abilene_nodelay_network.content_distribution 	client-2 	9
scalar abilene_nodelay_network.content_distribution 	client-3 	6
scalar abilene_nodelay_network.content_distribution 	client-4 	8
scalar abilene_nodelay_network.content_distribution 	client-5 	2
scalar abilene_nodelay_network.content_distribution 	client-6 	1
scalar abilene_nodelay_network.content_distribution 	client-7 	10
scalar abilene_nodelay_network.content_distribution 	client-8 	0
scalar abilene_nodelay_network.content_distribution 	client-9 	3
scalar abilene_nodelay_network.content_distribution 	client-10 	4
scalar abilene_nodelay_network.content_distribution 	repo-0_card 	9091588
scalar abilene_nodelay_network.content_distribution 	repo-0_price 	0
scalar abilene_nodelay_network.content_distribution 	repo-1_card 	9095721
scalar abilene_nodelay_network.content_distribution 	repo-1_price 	0
scalar abilene_nodelay_network.content_distribution 	repo-2_card 	9094056
scalar abilene_nodelay_network.content_distribution 	repo-2_price 	0
scalar abilene_nodelay_network.content_distribution 	repo-3_card 	9087421
scalar abilene_nodelay_network.content_distribution 	repo-3_price 	0
scalar abilene_nodelay_network.content_distribution 	repo-4_card 	9090280
scalar abilene_nodelay_network.content_distribution 	repo-4_price 	0
scalar abilene_nodelay_network.content_distribution 	repo-5_card 	9089080
scalar abilene_nodelay_network.content_distribution 	repo-5_price 	0
scalar abilene_nodelay_network.content_distribution 	repo-6_card 	9091836
scalar abilene_nodelay_network.content_distribution 	repo-6_price 	0
scalar abilene_nodelay_network.content_distribution 	repo-7_card 	9094026
scalar abilene_nodelay_network.content_distribution 	repo-7_price 	0
scalar abilene_nodelay_network.content_distribution 	repo-8_card 	9090973
scalar abilene_nodelay_network.content_distribution 	repo-8_price 	0
scalar abilene_nodelay_network.content_distribution 	repo-9_card 	9087838
scalar abilene_nodelay_network.content_distribution 	repo-9_price 	0
scalar abilene_nodelay_network.content_distribution 	repo-10_card 	9087181
scalar abilene_nodelay_network.content_distribution 	repo-10_price 	0
scalar abilene_nodelay_network.statistics 	stabilization_time 	30547.6
scalar abilene_nodelay_network.statistics 	p_hit 	0.1932013896106
scalar abilene_nodelay_network.statistics 	interests 	59576166.636364
scalar abilene_nodelay_network.statistics 	data 	23814612.272727
scalar abilene_nodelay_network.statistics 	hdistance 	1.0573707745785
scalar abilene_nodelay_network.statistics 	avg_time 	0
scalar abilene_nodelay_network.statistics 	downloads 	198000796
scalar abilene_nodelay_network.statistics 	total_cost 	0
scalar abilene_nodelay_network.statistics 	total_replicas 	100000000
scalar abilene_nodelay_network.statistics 	"representations_downloaded 0.360547:0:0:0:0.639453:" 	0
scalar abilene_nodelay_network.statistics 	"slots_per_representation 100:233:500:833:1167:" 	0
scalar abilene_nodelay_network.statistics 	inner_hit 	0.0092458668701514
scalar abilene_nodelay_network.statistics 	execution_time 	57768
scalar abilene_nodelay_network.node[0].core_layer 	interests[0] 	37939259
scalar abilene_nodelay_network.node[0].core_layer 	repo_load[0] 	16782614
scalar abilene_nodelay_network.node[0].core_layer 	data[0] 	10119536
scalar abilene_nodelay_network.node[0].core_layer 	slots_sent[face$o[1]->client[0]] 	14493000399
scalar abilene_nodelay_network.node[0].core_layer 	slots_sent[face$o[2]->node[1]] 	4545287747
scalar abilene_nodelay_network.node[0].core_layer 	slots_sent[face$o[3]->node[10]] 	1298985415
scalar abilene_nodelay_network.node[0].content_store 	p_hit[0] 	0.29091524955719
scalar abilene_nodelay_network.node[0].content_store 	hits[0] 	11037109
scalar abilene_nodelay_network.node[0].content_store 	misses[0] 	26902150
scalar abilene_nodelay_network.node[0].content_store 	decision_yes[0] 	5489262
scalar abilene_nodelay_network.node[0].content_store 	decision_no[0] 	21412888
scalar abilene_nodelay_network.node[0].content_store 	decision_ratio[0] 	0.20404547591921
scalar abilene_nodelay_network.node[0].proactive_component 	hdistance[0].proactive_component 	2.2443341426153
scalar abilene_nodelay_network.node[0].proactive_component 	downloads[0].proactive_component 	12642482
scalar abilene_nodelay_network.node[0].proactive_component 	avg_time[0].proactive_component 	0
scalar abilene_nodelay_network.node[1].core_layer 	interests[1] 	71646206
scalar abilene_nodelay_network.node[1].core_layer 	repo_load[1] 	19600070
scalar abilene_nodelay_network.node[1].core_layer 	data[1] 	31159057
scalar abilene_nodelay_network.node[1].core_layer 	slots_sent[face$o[1]->client[1]] 	13194821684
scalar abilene_nodelay_network.node[1].core_layer 	slots_sent[face$o[2]->node[0]] 	5487685461
scalar abilene_nodelay_network.node[1].core_layer 	slots_sent[face$o[3]->node[10]] 	4159049276
scalar abilene_nodelay_network.node[1].core_layer 	slots_sent[face$o[4]->node[2]] 	11252844281
scalar abilene_nodelay_network.node[1].content_store 	p_hit[1] 	0.15386227150674
scalar abilene_nodelay_network.node[1].content_store 	hits[1] 	11023648
scalar abilene_nodelay_network.node[1].content_store 	misses[1] 	60622558
scalar abilene_nodelay_network.node[1].content_store 	decision_yes[1] 	16304489
scalar abilene_nodelay_network.node[1].content_store 	decision_no[1] 	34454638
scalar abilene_nodelay_network.node[1].content_store 	decision_ratio[1] 	0.3212129515151
scalar abilene_nodelay_network.node[1].proactive_component 	hdistance[1].proactive_component 	2.2930248009035
scalar abilene_nodelay_network.node[1].proactive_component 	downloads[1].proactive_component 	26096187
scalar abilene_nodelay_network.node[1].proactive_component 	avg_time[1].proactive_component 	0
scalar abilene_nodelay_network.node[2].core_layer 	interests[2] 	95627312
scalar abilene_nodelay_network.node[2].core_layer 	repo_load[2] 	18788376
scalar abilene_nodelay_network.node[2].core_layer 	data[2] 	47072961
scalar abilene_nodelay_network.node[2].core_layer 	slots_sent[face$o[1]->client[2]] 	13817032702
scalar abilene_nodelay_network.node[2].core_layer 	slots_sent[face$o[2]->node[1]] 	12076193091
scalar abilene_nodelay_network.node[2].core_layer 	slots_sent[face$o[3]->node[3]] 	14494763708
scalar abilene_nodelay_network.node[2].core_layer 	slots_sent[face$o[4]->node[8]] 	5722840771
scalar abilene_nodelay_network.node[2].content_store 	p_hit[2] 	0.12939310685633
scalar abilene_nodelay_network.node[2].content_store 	hits[2] 	12373515
scalar abilene_nodelay_network.node[2].content_store 	misses[2] 	83253797
scalar abilene_nodelay_network.node[2].content_store 	decision_yes[2] 	24556980
scalar abilene_nodelay_network.node[2].content_store 	decision_no[2] 	41304357
scalar abilene_nodelay_network.node[2].content_store 	decision_ratio[2] 	0.37285881396547
scalar abilene_nodelay_network.node[2].proactive_component 	hdistance[2].proactive_component 	2.3344713415135
scalar abilene_nodelay_network.node[2].proactive_component 	downloads[2].proactive_component 	34493308
scalar abilene_nodelay_network.node[2].proactive_component 	avg_time[2].proactive_component 	0
scalar abilene_nodelay_network.node[3].core_layer 	interests[3] 	89575582
scalar abilene_nodelay_network.node[3].core_layer 	repo_load[3] 	18796665
scalar abilene_nodelay_network.node[3].core_layer 	data[3] 	43116584
scalar abilene_nodelay_network.node[3].core_layer 	slots_sent[face$o[1]->client[3]] 	13780564829
scalar abilene_nodelay_network.node[3].core_layer 	slots_sent[face$o[2]->node[2]] 	14243147691
scalar abilene_nodelay_network.node[3].core_layer 	slots_sent[face$o[3]->node[4]] 	8913831250
scalar abilene_nodelay_network.node[3].core_layer 	slots_sent[face$o[4]->node[7]] 	6374665206
scalar abilene_nodelay_network.node[3].content_store 	p_hit[3] 	0.13589470175031
scalar abilene_nodelay_network.node[3].content_store 	hits[3] 	12172847
scalar abilene_nodelay_network.node[3].content_store 	misses[3] 	77402735
scalar abilene_nodelay_network.node[3].content_store 	decision_yes[3] 	22541031
scalar abilene_nodelay_network.node[3].content_store 	decision_no[3] 	39372218
scalar abilene_nodelay_network.node[3].content_store 	decision_ratio[3] 	0.36407443259842
scalar abilene_nodelay_network.node[3].proactive_component 	hdistance[3].proactive_component 	2.3416887318361
scalar abilene_nodelay_network.node[3].proactive_component 	downloads[3].proactive_component 	32248412
scalar abilene_nodelay_network.node[3].proactive_component 	avg_time[3].proactive_component 	0
scalar abilene_nodelay_network.node[4].core_layer 	interests[4] 	52808508
scalar abilene_nodelay_network.node[4].core_layer 	repo_load[4] 	17415136
scalar abilene_nodelay_network.node[4].core_layer 	data[4] 	19557823
scalar abilene_nodelay_network.node[4].core_layer 	slots_sent[face$o[1]->client[4]] 	14233561081
scalar abilene_nodelay_network.node[4].core_layer 	slots_sent[face$o[2]->node[3]] 	7960614097
scalar abilene_nodelay_network.node[4].core_layer 	slots_sent[face$o[3]->node[5]] 	4774331502
scalar abilene_nodelay_network.node[4].content_store 	p_hit[4] 	0.21682650076007
scalar abilene_nodelay_network.node[4].content_store 	hits[4] 	11450284
scalar abilene_nodelay_network.node[4].content_store 	misses[4] 	41358224
scalar abilene_nodelay_network.node[4].content_store 	decision_yes[4] 	10363490
scalar abilene_nodelay_network.node[4].content_store 	decision_no[4] 	26609469
scalar abilene_nodelay_network.node[4].content_store 	decision_ratio[4] 	0.28029917756921
scalar abilene_nodelay_network.node[4].proactive_component 	hdistance[4].proactive_component 	2.3178133546056
scalar abilene_nodelay_network.node[4].proactive_component 	downloads[4].proactive_component 	18281812
scalar abilene_nodelay_network.node[4].proactive_component 	avg_time[4].proactive_component 	0
scalar abilene_nodelay_network.node[5].core_layer 	interests[5] 	40460668
scalar abilene_nodelay_network.node[5].core_layer 	repo_load[5] 	15986496
scalar abilene_nodelay_network.node[5].core_layer 	data[5] 	12098522
scalar abilene_nodelay_network.node[5].core_layer 	slots_sent[face$o[1]->client[5]] 	14713327307
scalar abilene_nodelay_network.node[5].core_layer 	slots_sent[face$o[2]->node[4]] 	4099794880
scalar abilene_nodelay_network.node[5].core_layer 	slots_sent[face$o[3]->node[6]] 	3059535139
scalar abilene_nodelay_network.node[5].content_store 	p_hit[5] 	0.28187624089647
scalar abilene_nodelay_network.node[5].content_store 	hits[5] 	11404901
scalar abilene_nodelay_network.node[5].content_store 	misses[5] 	29055767
scalar abilene_nodelay_network.node[5].content_store 	decision_yes[5] 	6507345
scalar abilene_nodelay_network.node[5].content_store 	decision_no[5] 	21577673
scalar abilene_nodelay_network.node[5].content_store 	decision_ratio[5] 	0.23170164961262
scalar abilene_nodelay_network.node[5].proactive_component 	hdistance[5].proactive_component 	2.2651228751435
scalar abilene_nodelay_network.node[5].proactive_component 	downloads[5].proactive_component 	13405437
scalar abilene_nodelay_network.node[5].proactive_component 	avg_time[5].proactive_component 	0
scalar abilene_nodelay_network.node[6].core_layer 	interests[6] 	47098933
scalar abilene_nodelay_network.node[6].core_layer 	repo_load[6] 	17802916
scalar abilene_nodelay_network.node[6].core_layer 	data[6] 	15888952
scalar abilene_nodelay_network.node[6].core_layer 	slots_sent[face$o[1]->client[6]] 	13705159322
scalar abilene_nodelay_network.node[6].core_layer 	slots_sent[face$o[2]->node[5]] 	3378857813
scalar abilene_nodelay_network.node[6].core_layer 	slots_sent[face$o[3]->node[7]] 	6435281430
scalar abilene_nodelay_network.node[6].content_store 	p_hit[6] 	0.22732052125257
scalar abilene_nodelay_network.node[6].content_store 	hits[6] 	10706554
scalar abilene_nodelay_network.node[6].content_store 	misses[6] 	36392379
scalar abilene_nodelay_network.node[6].content_store 	decision_yes[6] 	8450820
scalar abilene_nodelay_network.node[6].content_store 	decision_no[6] 	25241048
scalar abilene_nodelay_network.node[6].content_store 	decision_ratio[6] 	0.25082669800321
scalar abilene_nodelay_network.node[6].proactive_component 	hdistance[6].proactive_component 	2.1644294529936
scalar abilene_nodelay_network.node[6].proactive_component 	downloads[6].proactive_component 	16602944
scalar abilene_nodelay_network.node[6].proactive_component 	avg_time[6].proactive_component 	0
scalar abilene_nodelay_network.node[7].core_layer 	interests[7] 	65418427
scalar abilene_nodelay_network.node[7].core_layer 	repo_load[7] 	18094920
scalar abilene_nodelay_network.node[7].core_layer 	data[7] 	27311359
scalar abilene_nodelay_network.node[7].core_layer 	slots_sent[face$o[1]->client[7]] 	14270693998
scalar abilene_nodelay_network.node[7].core_layer 	slots_sent[face$o[2]->node[3]] 	5907560672
scalar abilene_nodelay_network.node[7].core_layer 	slots_sent[face$o[3]->node[6]] 	7546385001
scalar abilene_nodelay_network.node[7].core_layer 	slots_sent[face$o[4]->node[8]] 	5214327786
scalar abilene_nodelay_network.node[7].content_store 	p_hit[7] 	0.18366719517729
scalar abilene_nodelay_network.node[7].content_store 	hits[7] 	12015219
scalar abilene_nodelay_network.node[7].content_store 	misses[7] 	53403208
scalar abilene_nodelay_network.node[7].content_store 	decision_yes[7] 	14368425
scalar abilene_nodelay_network.node[7].content_store 	decision_no[7] 	31037854
scalar abilene_nodelay_network.node[7].content_store 	decision_ratio[7] 	0.31644136706291
scalar abilene_nodelay_network.node[7].proactive_component 	hdistance[7].proactive_component 	2.1978489370278
scalar abilene_nodelay_network.node[7].proactive_component 	downloads[7].proactive_component 	22891566
scalar abilene_nodelay_network.node[7].proactive_component 	avg_time[7].proactive_component 	0
scalar abilene_nodelay_network.node[8].core_layer 	interests[8] 	63055014
scalar abilene_nodelay_network.node[8].core_layer 	repo_load[8] 	18567849
scalar abilene_nodelay_network.node[8].core_layer 	data[8] 	25509133
scalar abilene_nodelay_network.node[8].core_layer 	slots_sent[face$o[1]->client[8]] 	14122730703
scalar abilene_nodelay_network.node[8].core_layer 	slots_sent[face$o[2]->node[2]] 	5413601788
scalar abilene_nodelay_network.node[8].core_layer 	slots_sent[face$o[3]->node[7]] 	5252298739
scalar abilene_nodelay_network.node[8].core_layer 	slots_sent[face$o[4]->node[9]] 	6836916376
scalar abilene_nodelay_network.node[8].content_store 	p_hit[8] 	0.18733108202942
scalar abilene_nodelay_network.node[8].content_store 	hits[8] 	11812164
scalar abilene_nodelay_network.node[8].content_store 	misses[8] 	51242850
scalar abilene_nodelay_network.node[8].content_store 	decision_yes[8] 	13427147
scalar abilene_nodelay_network.node[8].content_store 	decision_no[8] 	30649835
scalar abilene_nodelay_network.node[8].content_store 	decision_ratio[8] 	0.30462945489326
scalar abilene_nodelay_network.node[8].proactive_component 	hdistance[8].proactive_component 	2.0998531257943
scalar abilene_nodelay_network.node[8].proactive_component 	downloads[8].proactive_component 	22123694
scalar abilene_nodelay_network.node[8].proactive_component 	avg_time[8].proactive_component 	0
scalar abilene_nodelay_network.node[9].core_layer 	interests[9] 	46827140
scalar abilene_nodelay_network.node[9].core_layer 	repo_load[9] 	16936046
scalar abilene_nodelay_network.node[9].core_layer 	data[9] 	15975430
scalar abilene_nodelay_network.node[9].core_layer 	slots_sent[face$o[1]->client[9]] 	14167291798
scalar abilene_nodelay_network.node[9].core_layer 	slots_sent[face$o[2]->node[10]] 	3953876520
scalar abilene_nodelay_network.node[9].core_layer 	slots_sent[face$o[3]->node[8]] 	5940510592
scalar abilene_nodelay_network.node[9].content_store 	p_hit[9] 	0.23923528107845
scalar abilene_nodelay_network.node[9].content_store 	hits[9] 	11202704
scalar abilene_nodelay_network.node[9].content_store 	misses[9] 	35624436
scalar abilene_nodelay_network.node[9].content_store 	decision_yes[9] 	8469427
scalar abilene_nodelay_network.node[9].content_store 	decision_no[9] 	24442049
scalar abilene_nodelay_network.node[9].content_store 	decision_ratio[9] 	0.25733962828042
scalar abilene_nodelay_network.node[9].proactive_component 	hdistance[9].proactive_component 	2.1104322873218
scalar abilene_nodelay_network.node[9].proactive_component 	downloads[9].proactive_component 	16159160
scalar abilene_nodelay_network.node[9].proactive_component 	avg_time[9].proactive_component 	0
scalar abilene_nodelay_network.node[10].core_layer 	interests[10] 	44880784
scalar abilene_nodelay_network.node[10].core_layer 	repo_load[10] 	17399019
scalar abilene_nodelay_network.node[10].core_layer 	data[10] 	14151378
scalar abilene_nodelay_network.node[10].core_layer 	slots_sent[face$o[1]->client[10]] 	14397091837
scalar abilene_nodelay_network.node[10].core_layer 	slots_sent[face$o[2]->node[0]] 	1381310693
scalar abilene_nodelay_network.node[10].core_layer 	slots_sent[face$o[3]->node[1]] 	3891314625
scalar abilene_nodelay_network.node[10].core_layer 	slots_sent[face$o[4]->node[9]] 	3797505233
scalar abilene_nodelay_network.node[10].content_store 	p_hit[10] 	0.25430115035424
scalar abilene_nodelay_network.node[10].content_store 	hits[10] 	11413235
scalar abilene_nodelay_network.node[10].content_store 	misses[10] 	33467549
scalar abilene_nodelay_network.node[10].content_store 	decision_yes[10] 	7494633
scalar abilene_nodelay_network.node[10].content_store 	decision_no[10] 	24055764
scalar abilene_nodelay_network.node[10].content_store 	decision_ratio[10] 	0.23754480807325
scalar abilene_nodelay_network.node[10].proactive_component 	hdistance[10].proactive_component 	2.0609318681946
scalar abilene_nodelay_network.node[10].proactive_component 	downloads[10].proactive_component 	15272911
scalar abilene_nodelay_network.node[10].proactive_component 	avg_time[10].proactive_component 	0
scalar abilene_nodelay_network.client[0] 	hdistance[0].real 	1.159113386788
scalar abilene_nodelay_network.client[0] 	downloads[0].real 	17998649
scalar abilene_nodelay_network.client[0] 	avg_time[0].real 	0
scalar abilene_nodelay_network.client[1] 	hdistance[1].real 	1.0949117206654
scalar abilene_nodelay_network.client[1] 	downloads[1].real 	18001665
scalar abilene_nodelay_network.client[1] 	avg_time[1].real 	0
scalar abilene_nodelay_network.client[2] 	hdistance[2].real 	0.95636104393498
scalar abilene_nodelay_network.client[2] 	downloads[2].real 	17990852
scalar abilene_nodelay_network.client[2] 	avg_time[2].real 	0
scalar abilene_nodelay_network.client[3] 	hdistance[3].real 	0.98665310462928
scalar abilene_nodelay_network.client[3] 	downloads[3].real 	18005161
scalar abilene_nodelay_network.client[3] 	avg_time[3].real 	0
scalar abilene_nodelay_network.client[4] 	hdistance[4].real 	1.105771474657
scalar abilene_nodelay_network.client[4] 	downloads[4].real 	18006178
scalar abilene_nodelay_network.client[4] 	avg_time[4].real 	0
scalar abilene_nodelay_network.client[5] 	hdistance[5].real 	1.1506856728248
scalar abilene_nodelay_network.client[5] 	downloads[5].real 	17998307
scalar abilene_nodelay_network.client[5] 	avg_time[5].real 	0
scalar abilene_nodelay_network.client[6] 	hdistance[6].real 	1.1462003222281
scalar abilene_nodelay_network.client[6] 	downloads[6].real 	18004632
scalar abilene_nodelay_network.client[6] 	avg_time[6].real 	0
scalar abilene_nodelay_network.client[7] 	hdistance[7].real 	0.9683589771714
scalar abilene_nodelay_network.client[7] 	downloads[7].real 	17997111
scalar abilene_nodelay_network.client[7] 	avg_time[7].real 	0
scalar abilene_nodelay_network.client[8] 	hdistance[8].real 	0.94633275094548
scalar abilene_nodelay_network.client[8] 	downloads[8].real 	17998314
scalar abilene_nodelay_network.client[8] 	avg_time[8].real 	0
scalar abilene_nodelay_network.client[9] 	hdistance[9].real 	1.0434639438955
scalar abilene_nodelay_network.client[9] 	downloads[9].real 	18002347
scalar abilene_nodelay_network.client[9] 	avg_time[9].real 	0
scalar abilene_nodelay_network.client[10] 	hdistance[10].real 	1.0732261226233
scalar abilene_nodelay_network.client[10] 	downloads[10].real 	17997580
scalar abilene_nodelay_network.client[10] 	avg_time[10].real 	0
