version 2
run General-6-20150722-13:23:51-32210
attr C 1e4
attr D lce
attr F spr
attr R lru_repr
attr a 1
attr brates 0.3_0.7_1.5_2.5_3.5
attr configname General
attr ctlg 1e6
attr datetime 20150722-13:23:51
attr experiment General
attr inifile omnetpp.ini
attr iterationvars "$net=barabasi_100nodes, $rep=4, $lambda=100, $a=1, $ctlg=1e6, $brates=0.3_0.7_1.5_2.5_3.5, $F=spr, $ttl=1000, $D=lce, $R=lru_repr, $C=1e4, $window=60, $variance=0.05, $mytime=1800"
attr iterationvars2 "$net=barabasi_100nodes, $rep=4, $lambda=100, $a=1, $ctlg=1e6, $brates=0.3_0.7_1.5_2.5_3.5, $F=spr, $ttl=1000, $D=lce, $R=lru_repr, $C=1e4, $window=60, $variance=0.05, $mytime=1800, $repetition=0"
attr lambda 100
attr measurement "$net=barabasi_100nodes, $rep=4, $lambda=100, $a=1, $ctlg=1e6, $brates=0.3_0.7_1.5_2.5_3.5, $F=spr, $ttl=1000, $D=lce, $R=lru_repr, $C=1e4, $window=60, $variance=0.05, $mytime=1800"
attr mytime 1800
attr net barabasi_100nodes
attr network networks.${net=barabasi_100nodes}_network
attr processid 32210
attr rep 4
attr repetition 0
attr replication #0
attr resultdir results
attr runnumber 6
attr seedset 4
attr ttl 1000
attr variance 0.05
attr window 60

scalar . 	C 	1e4
scalar . 	a 	1
scalar . 	ctlg 	1e6
scalar . 	lambda 	100
scalar . 	mytime 	1800
scalar . 	rep 	4
scalar . 	ttl 	1000
scalar . 	variance 	0.05
scalar . 	window 	60
scalar barabasi_100nodes_network.content_distribution 	repo-0 	82
scalar barabasi_100nodes_network.content_distribution 	repo-1 	48
scalar barabasi_100nodes_network.content_distribution 	repo-2 	74
scalar barabasi_100nodes_network.content_distribution 	repo-3 	16
scalar barabasi_100nodes_network.content_distribution 	repo-4 	98
scalar barabasi_100nodes_network.content_distribution 	repo-5 	25
scalar barabasi_100nodes_network.content_distribution 	repo-6 	58
scalar barabasi_100nodes_network.content_distribution 	repo-7 	99
scalar barabasi_100nodes_network.content_distribution 	repo-8 	26
scalar barabasi_100nodes_network.content_distribution 	repo-9 	66
scalar barabasi_100nodes_network.content_distribution 	repo-10 	46
scalar barabasi_100nodes_network.content_distribution 	repo-11 	54
scalar barabasi_100nodes_network.content_distribution 	repo-12 	77
scalar barabasi_100nodes_network.content_distribution 	repo-13 	73
scalar barabasi_100nodes_network.content_distribution 	repo-14 	75
scalar barabasi_100nodes_network.content_distribution 	repo-15 	52
scalar barabasi_100nodes_network.content_distribution 	repo-16 	2
scalar barabasi_100nodes_network.content_distribution 	repo-17 	32
scalar barabasi_100nodes_network.content_distribution 	repo-18 	19
scalar barabasi_100nodes_network.content_distribution 	repo-19 	21
scalar barabasi_100nodes_network.content_distribution 	repo-20 	11
scalar barabasi_100nodes_network.content_distribution 	repo-21 	86
scalar barabasi_100nodes_network.content_distribution 	repo-22 	1
scalar barabasi_100nodes_network.content_distribution 	repo-23 	18
scalar barabasi_100nodes_network.content_distribution 	repo-24 	24
scalar barabasi_100nodes_network.content_distribution 	repo-25 	28
scalar barabasi_100nodes_network.content_distribution 	repo-26 	40
scalar barabasi_100nodes_network.content_distribution 	repo-27 	76
scalar barabasi_100nodes_network.content_distribution 	repo-28 	22
scalar barabasi_100nodes_network.content_distribution 	repo-29 	34
scalar barabasi_100nodes_network.content_distribution 	repo-30 	5
scalar barabasi_100nodes_network.content_distribution 	repo-31 	51
scalar barabasi_100nodes_network.content_distribution 	repo-32 	88
scalar barabasi_100nodes_network.content_distribution 	repo-33 	85
scalar barabasi_100nodes_network.content_distribution 	repo-34 	49
scalar barabasi_100nodes_network.content_distribution 	repo-35 	45
scalar barabasi_100nodes_network.content_distribution 	repo-36 	71
scalar barabasi_100nodes_network.content_distribution 	repo-37 	7
scalar barabasi_100nodes_network.content_distribution 	repo-38 	6
scalar barabasi_100nodes_network.content_distribution 	repo-39 	79
scalar barabasi_100nodes_network.content_distribution 	repo-40 	38
scalar barabasi_100nodes_network.content_distribution 	repo-41 	83
scalar barabasi_100nodes_network.content_distribution 	repo-42 	10
scalar barabasi_100nodes_network.content_distribution 	repo-43 	61
scalar barabasi_100nodes_network.content_distribution 	repo-44 	62
scalar barabasi_100nodes_network.content_distribution 	repo-45 	36
scalar barabasi_100nodes_network.content_distribution 	repo-46 	94
scalar barabasi_100nodes_network.content_distribution 	repo-47 	0
scalar barabasi_100nodes_network.content_distribution 	repo-48 	47
scalar barabasi_100nodes_network.content_distribution 	repo-49 	89
scalar barabasi_100nodes_network.content_distribution 	repo-50 	41
scalar barabasi_100nodes_network.content_distribution 	repo-51 	81
scalar barabasi_100nodes_network.content_distribution 	repo-52 	59
scalar barabasi_100nodes_network.content_distribution 	repo-53 	72
scalar barabasi_100nodes_network.content_distribution 	repo-54 	37
scalar barabasi_100nodes_network.content_distribution 	repo-55 	13
scalar barabasi_100nodes_network.content_distribution 	repo-56 	65
scalar barabasi_100nodes_network.content_distribution 	repo-57 	53
scalar barabasi_100nodes_network.content_distribution 	repo-58 	97
scalar barabasi_100nodes_network.content_distribution 	repo-59 	67
scalar barabasi_100nodes_network.content_distribution 	repo-60 	57
scalar barabasi_100nodes_network.content_distribution 	repo-61 	50
scalar barabasi_100nodes_network.content_distribution 	repo-62 	35
scalar barabasi_100nodes_network.content_distribution 	repo-63 	20
scalar barabasi_100nodes_network.content_distribution 	repo-64 	60
scalar barabasi_100nodes_network.content_distribution 	repo-65 	4
scalar barabasi_100nodes_network.content_distribution 	repo-66 	91
scalar barabasi_100nodes_network.content_distribution 	repo-67 	43
scalar barabasi_100nodes_network.content_distribution 	repo-68 	3
scalar barabasi_100nodes_network.content_distribution 	repo-69 	29
scalar barabasi_100nodes_network.content_distribution 	repo-70 	9
scalar barabasi_100nodes_network.content_distribution 	repo-71 	39
scalar barabasi_100nodes_network.content_distribution 	repo-72 	63
scalar barabasi_100nodes_network.content_distribution 	repo-73 	55
scalar barabasi_100nodes_network.content_distribution 	repo-74 	56
scalar barabasi_100nodes_network.content_distribution 	repo-75 	87
scalar barabasi_100nodes_network.content_distribution 	repo-76 	27
scalar barabasi_100nodes_network.content_distribution 	repo-77 	95
scalar barabasi_100nodes_network.content_distribution 	repo-78 	31
scalar barabasi_100nodes_network.content_distribution 	repo-79 	80
scalar barabasi_100nodes_network.content_distribution 	repo-80 	14
scalar barabasi_100nodes_network.content_distribution 	repo-81 	8
scalar barabasi_100nodes_network.content_distribution 	repo-82 	69
scalar barabasi_100nodes_network.content_distribution 	repo-83 	44
scalar barabasi_100nodes_network.content_distribution 	repo-84 	96
scalar barabasi_100nodes_network.content_distribution 	repo-85 	17
scalar barabasi_100nodes_network.content_distribution 	repo-86 	15
scalar barabasi_100nodes_network.content_distribution 	repo-87 	78
scalar barabasi_100nodes_network.content_distribution 	repo-88 	93
scalar barabasi_100nodes_network.content_distribution 	repo-89 	42
scalar barabasi_100nodes_network.content_distribution 	repo-90 	64
scalar barabasi_100nodes_network.content_distribution 	repo-91 	84
scalar barabasi_100nodes_network.content_distribution 	repo-92 	33
scalar barabasi_100nodes_network.content_distribution 	repo-93 	70
scalar barabasi_100nodes_network.content_distribution 	repo-94 	92
scalar barabasi_100nodes_network.content_distribution 	repo-95 	23
scalar barabasi_100nodes_network.content_distribution 	repo-96 	68
scalar barabasi_100nodes_network.content_distribution 	repo-97 	90
scalar barabasi_100nodes_network.content_distribution 	repo-98 	30
scalar barabasi_100nodes_network.content_distribution 	repo-99 	12
scalar barabasi_100nodes_network.content_distribution 	client-0 	66
scalar barabasi_100nodes_network.content_distribution 	client-1 	63
scalar barabasi_100nodes_network.content_distribution 	client-2 	51
scalar barabasi_100nodes_network.content_distribution 	client-3 	44
scalar barabasi_100nodes_network.content_distribution 	client-4 	78
scalar barabasi_100nodes_network.content_distribution 	client-5 	90
scalar barabasi_100nodes_network.content_distribution 	client-6 	52
scalar barabasi_100nodes_network.content_distribution 	client-7 	18
scalar barabasi_100nodes_network.content_distribution 	client-8 	69
scalar barabasi_100nodes_network.content_distribution 	client-9 	88
scalar barabasi_100nodes_network.content_distribution 	client-10 	30
scalar barabasi_100nodes_network.content_distribution 	client-11 	53
scalar barabasi_100nodes_network.content_distribution 	client-12 	73
scalar barabasi_100nodes_network.content_distribution 	client-13 	28
scalar barabasi_100nodes_network.content_distribution 	client-14 	89
scalar barabasi_100nodes_network.content_distribution 	client-15 	46
scalar barabasi_100nodes_network.content_distribution 	client-16 	40
scalar barabasi_100nodes_network.content_distribution 	client-17 	94
scalar barabasi_100nodes_network.content_distribution 	client-18 	87
scalar barabasi_100nodes_network.content_distribution 	client-19 	39
scalar barabasi_100nodes_network.content_distribution 	client-20 	82
scalar barabasi_100nodes_network.content_distribution 	client-21 	35
scalar barabasi_100nodes_network.content_distribution 	client-22 	84
scalar barabasi_100nodes_network.content_distribution 	client-23 	54
scalar barabasi_100nodes_network.content_distribution 	client-24 	20
scalar barabasi_100nodes_network.content_distribution 	client-25 	5
scalar barabasi_100nodes_network.content_distribution 	client-26 	4
scalar barabasi_100nodes_network.content_distribution 	client-27 	43
scalar barabasi_100nodes_network.content_distribution 	client-28 	1
scalar barabasi_100nodes_network.content_distribution 	client-29 	49
scalar barabasi_100nodes_network.content_distribution 	client-30 	15
scalar barabasi_100nodes_network.content_distribution 	client-31 	12
scalar barabasi_100nodes_network.content_distribution 	client-32 	86
scalar barabasi_100nodes_network.content_distribution 	client-33 	24
scalar barabasi_100nodes_network.content_distribution 	client-34 	19
scalar barabasi_100nodes_network.content_distribution 	client-35 	16
scalar barabasi_100nodes_network.content_distribution 	client-36 	38
scalar barabasi_100nodes_network.content_distribution 	client-37 	62
scalar barabasi_100nodes_network.content_distribution 	client-38 	57
scalar barabasi_100nodes_network.content_distribution 	client-39 	95
scalar barabasi_100nodes_network.content_distribution 	client-40 	2
scalar barabasi_100nodes_network.content_distribution 	client-41 	68
scalar barabasi_100nodes_network.content_distribution 	client-42 	6
scalar barabasi_100nodes_network.content_distribution 	client-43 	55
scalar barabasi_100nodes_network.content_distribution 	client-44 	80
scalar barabasi_100nodes_network.content_distribution 	client-45 	72
scalar barabasi_100nodes_network.content_distribution 	client-46 	41
scalar barabasi_100nodes_network.content_distribution 	client-47 	14
scalar barabasi_100nodes_network.content_distribution 	client-48 	96
scalar barabasi_100nodes_network.content_distribution 	client-49 	59
scalar barabasi_100nodes_network.content_distribution 	client-50 	21
scalar barabasi_100nodes_network.content_distribution 	client-51 	67
scalar barabasi_100nodes_network.content_distribution 	client-52 	27
scalar barabasi_100nodes_network.content_distribution 	client-53 	32
scalar barabasi_100nodes_network.content_distribution 	client-54 	37
scalar barabasi_100nodes_network.content_distribution 	client-55 	23
scalar barabasi_100nodes_network.content_distribution 	client-56 	79
scalar barabasi_100nodes_network.content_distribution 	client-57 	34
scalar barabasi_100nodes_network.content_distribution 	client-58 	92
scalar barabasi_100nodes_network.content_distribution 	client-59 	42
scalar barabasi_100nodes_network.content_distribution 	client-60 	11
scalar barabasi_100nodes_network.content_distribution 	client-61 	65
scalar barabasi_100nodes_network.content_distribution 	client-62 	97
scalar barabasi_100nodes_network.content_distribution 	client-63 	50
scalar barabasi_100nodes_network.content_distribution 	client-64 	83
scalar barabasi_100nodes_network.content_distribution 	client-65 	60
scalar barabasi_100nodes_network.content_distribution 	client-66 	36
scalar barabasi_100nodes_network.content_distribution 	client-67 	71
scalar barabasi_100nodes_network.content_distribution 	client-68 	74
scalar barabasi_100nodes_network.content_distribution 	client-69 	45
scalar barabasi_100nodes_network.content_distribution 	client-70 	99
scalar barabasi_100nodes_network.content_distribution 	client-71 	76
scalar barabasi_100nodes_network.content_distribution 	client-72 	22
scalar barabasi_100nodes_network.content_distribution 	client-73 	7
scalar barabasi_100nodes_network.content_distribution 	client-74 	58
scalar barabasi_100nodes_network.content_distribution 	client-75 	93
scalar barabasi_100nodes_network.content_distribution 	client-76 	75
scalar barabasi_100nodes_network.content_distribution 	client-77 	8
scalar barabasi_100nodes_network.content_distribution 	client-78 	47
scalar barabasi_100nodes_network.content_distribution 	client-79 	98
scalar barabasi_100nodes_network.content_distribution 	client-80 	91
scalar barabasi_100nodes_network.content_distribution 	client-81 	33
scalar barabasi_100nodes_network.content_distribution 	client-82 	81
scalar barabasi_100nodes_network.content_distribution 	client-83 	25
scalar barabasi_100nodes_network.content_distribution 	client-84 	70
scalar barabasi_100nodes_network.content_distribution 	client-85 	9
scalar barabasi_100nodes_network.content_distribution 	client-86 	64
scalar barabasi_100nodes_network.content_distribution 	client-87 	26
scalar barabasi_100nodes_network.content_distribution 	client-88 	13
scalar barabasi_100nodes_network.content_distribution 	client-89 	3
scalar barabasi_100nodes_network.content_distribution 	client-90 	48
scalar barabasi_100nodes_network.content_distribution 	client-91 	61
scalar barabasi_100nodes_network.content_distribution 	client-92 	77
scalar barabasi_100nodes_network.content_distribution 	client-93 	29
scalar barabasi_100nodes_network.content_distribution 	client-94 	17
scalar barabasi_100nodes_network.content_distribution 	client-95 	56
scalar barabasi_100nodes_network.content_distribution 	client-96 	31
scalar barabasi_100nodes_network.content_distribution 	client-97 	10
scalar barabasi_100nodes_network.content_distribution 	client-98 	0
scalar barabasi_100nodes_network.content_distribution 	client-99 	85
scalar barabasi_100nodes_network.content_distribution 	repo-0_card 	249422
scalar barabasi_100nodes_network.content_distribution 	repo-0_price 	0
scalar barabasi_100nodes_network.content_distribution 	repo-1_card 	250186
scalar barabasi_100nodes_network.content_distribution 	repo-1_price 	0
scalar barabasi_100nodes_network.content_distribution 	repo-2_card 	250640
scalar barabasi_100nodes_network.content_distribution 	repo-2_price 	0
scalar barabasi_100nodes_network.content_distribution 	repo-3_card 	249752
scalar barabasi_100nodes_network.content_distribution 	repo-3_price 	0
scalar barabasi_100nodes_network.content_distribution 	repo-4_card 	0
scalar barabasi_100nodes_network.content_distribution 	repo-4_price 	0
scalar barabasi_100nodes_network.content_distribution 	repo-5_card 	0
scalar barabasi_100nodes_network.content_distribution 	repo-5_price 	0
scalar barabasi_100nodes_network.content_distribution 	repo-6_card 	0
scalar barabasi_100nodes_network.content_distribution 	repo-6_price 	0
scalar barabasi_100nodes_network.content_distribution 	repo-7_card 	0
scalar barabasi_100nodes_network.content_distribution 	repo-7_price 	0
scalar barabasi_100nodes_network.content_distribution 	repo-8_card 	0
scalar barabasi_100nodes_network.content_distribution 	repo-8_price 	0
scalar barabasi_100nodes_network.content_distribution 	repo-9_card 	0
scalar barabasi_100nodes_network.content_distribution 	repo-9_price 	0
scalar barabasi_100nodes_network.content_distribution 	repo-10_card 	0
scalar barabasi_100nodes_network.content_distribution 	repo-10_price 	0
scalar barabasi_100nodes_network.content_distribution 	repo-11_card 	0
scalar barabasi_100nodes_network.content_distribution 	repo-11_price 	0
scalar barabasi_100nodes_network.content_distribution 	repo-12_card 	0
scalar barabasi_100nodes_network.content_distribution 	repo-12_price 	0
scalar barabasi_100nodes_network.content_distribution 	repo-13_card 	0
scalar barabasi_100nodes_network.content_distribution 	repo-13_price 	0
scalar barabasi_100nodes_network.content_distribution 	repo-14_card 	0
scalar barabasi_100nodes_network.content_distribution 	repo-14_price 	0
scalar barabasi_100nodes_network.content_distribution 	repo-15_card 	0
scalar barabasi_100nodes_network.content_distribution 	repo-15_price 	0
scalar barabasi_100nodes_network.content_distribution 	repo-16_card 	0
scalar barabasi_100nodes_network.content_distribution 	repo-16_price 	0
scalar barabasi_100nodes_network.content_distribution 	repo-17_card 	0
scalar barabasi_100nodes_network.content_distribution 	repo-17_price 	0
scalar barabasi_100nodes_network.content_distribution 	repo-18_card 	0
scalar barabasi_100nodes_network.content_distribution 	repo-18_price 	0
scalar barabasi_100nodes_network.content_distribution 	repo-19_card 	0
scalar barabasi_100nodes_network.content_distribution 	repo-19_price 	0
scalar barabasi_100nodes_network.content_distribution 	repo-20_card 	0
scalar barabasi_100nodes_network.content_distribution 	repo-20_price 	0
scalar barabasi_100nodes_network.content_distribution 	repo-21_card 	0
scalar barabasi_100nodes_network.content_distribution 	repo-21_price 	0
scalar barabasi_100nodes_network.content_distribution 	repo-22_card 	0
scalar barabasi_100nodes_network.content_distribution 	repo-22_price 	0
scalar barabasi_100nodes_network.content_distribution 	repo-23_card 	0
scalar barabasi_100nodes_network.content_distribution 	repo-23_price 	0
scalar barabasi_100nodes_network.content_distribution 	repo-24_card 	0
scalar barabasi_100nodes_network.content_distribution 	repo-24_price 	0
scalar barabasi_100nodes_network.content_distribution 	repo-25_card 	0
scalar barabasi_100nodes_network.content_distribution 	repo-25_price 	0
scalar barabasi_100nodes_network.content_distribution 	repo-26_card 	0
scalar barabasi_100nodes_network.content_distribution 	repo-26_price 	0
scalar barabasi_100nodes_network.content_distribution 	repo-27_card 	0
scalar barabasi_100nodes_network.content_distribution 	repo-27_price 	0
scalar barabasi_100nodes_network.content_distribution 	repo-28_card 	0
scalar barabasi_100nodes_network.content_distribution 	repo-28_price 	0
scalar barabasi_100nodes_network.content_distribution 	repo-29_card 	0
scalar barabasi_100nodes_network.content_distribution 	repo-29_price 	0
scalar barabasi_100nodes_network.content_distribution 	repo-30_card 	0
scalar barabasi_100nodes_network.content_distribution 	repo-30_price 	0
scalar barabasi_100nodes_network.content_distribution 	repo-31_card 	0
scalar barabasi_100nodes_network.content_distribution 	repo-31_price 	0
scalar barabasi_100nodes_network.content_distribution 	repo-32_card 	0
scalar barabasi_100nodes_network.content_distribution 	repo-32_price 	0
scalar barabasi_100nodes_network.content_distribution 	repo-33_card 	0
scalar barabasi_100nodes_network.content_distribution 	repo-33_price 	0
scalar barabasi_100nodes_network.content_distribution 	repo-34_card 	0
scalar barabasi_100nodes_network.content_distribution 	repo-34_price 	0
scalar barabasi_100nodes_network.content_distribution 	repo-35_card 	0
scalar barabasi_100nodes_network.content_distribution 	repo-35_price 	0
scalar barabasi_100nodes_network.content_distribution 	repo-36_card 	0
scalar barabasi_100nodes_network.content_distribution 	repo-36_price 	0
scalar barabasi_100nodes_network.content_distribution 	repo-37_card 	0
scalar barabasi_100nodes_network.content_distribution 	repo-37_price 	0
scalar barabasi_100nodes_network.content_distribution 	repo-38_card 	0
scalar barabasi_100nodes_network.content_distribution 	repo-38_price 	0
scalar barabasi_100nodes_network.content_distribution 	repo-39_card 	0
scalar barabasi_100nodes_network.content_distribution 	repo-39_price 	0
scalar barabasi_100nodes_network.content_distribution 	repo-40_card 	0
scalar barabasi_100nodes_network.content_distribution 	repo-40_price 	0
scalar barabasi_100nodes_network.content_distribution 	repo-41_card 	0
scalar barabasi_100nodes_network.content_distribution 	repo-41_price 	0
scalar barabasi_100nodes_network.content_distribution 	repo-42_card 	0
scalar barabasi_100nodes_network.content_distribution 	repo-42_price 	0
scalar barabasi_100nodes_network.content_distribution 	repo-43_card 	0
scalar barabasi_100nodes_network.content_distribution 	repo-43_price 	0
scalar barabasi_100nodes_network.content_distribution 	repo-44_card 	0
scalar barabasi_100nodes_network.content_distribution 	repo-44_price 	0
scalar barabasi_100nodes_network.content_distribution 	repo-45_card 	0
scalar barabasi_100nodes_network.content_distribution 	repo-45_price 	0
scalar barabasi_100nodes_network.content_distribution 	repo-46_card 	0
scalar barabasi_100nodes_network.content_distribution 	repo-46_price 	0
scalar barabasi_100nodes_network.content_distribution 	repo-47_card 	0
scalar barabasi_100nodes_network.content_distribution 	repo-47_price 	0
scalar barabasi_100nodes_network.content_distribution 	repo-48_card 	0
scalar barabasi_100nodes_network.content_distribution 	repo-48_price 	0
scalar barabasi_100nodes_network.content_distribution 	repo-49_card 	0
scalar barabasi_100nodes_network.content_distribution 	repo-49_price 	0
scalar barabasi_100nodes_network.content_distribution 	repo-50_card 	0
scalar barabasi_100nodes_network.content_distribution 	repo-50_price 	0
scalar barabasi_100nodes_network.content_distribution 	repo-51_card 	0
scalar barabasi_100nodes_network.content_distribution 	repo-51_price 	0
scalar barabasi_100nodes_network.content_distribution 	repo-52_card 	0
scalar barabasi_100nodes_network.content_distribution 	repo-52_price 	0
scalar barabasi_100nodes_network.content_distribution 	repo-53_card 	0
scalar barabasi_100nodes_network.content_distribution 	repo-53_price 	0
scalar barabasi_100nodes_network.content_distribution 	repo-54_card 	0
scalar barabasi_100nodes_network.content_distribution 	repo-54_price 	0
scalar barabasi_100nodes_network.content_distribution 	repo-55_card 	0
scalar barabasi_100nodes_network.content_distribution 	repo-55_price 	0
scalar barabasi_100nodes_network.content_distribution 	repo-56_card 	0
scalar barabasi_100nodes_network.content_distribution 	repo-56_price 	0
scalar barabasi_100nodes_network.content_distribution 	repo-57_card 	0
scalar barabasi_100nodes_network.content_distribution 	repo-57_price 	0
scalar barabasi_100nodes_network.content_distribution 	repo-58_card 	0
scalar barabasi_100nodes_network.content_distribution 	repo-58_price 	0
scalar barabasi_100nodes_network.content_distribution 	repo-59_card 	0
scalar barabasi_100nodes_network.content_distribution 	repo-59_price 	0
scalar barabasi_100nodes_network.content_distribution 	repo-60_card 	0
scalar barabasi_100nodes_network.content_distribution 	repo-60_price 	0
scalar barabasi_100nodes_network.content_distribution 	repo-61_card 	0
scalar barabasi_100nodes_network.content_distribution 	repo-61_price 	0
scalar barabasi_100nodes_network.content_distribution 	repo-62_card 	0
scalar barabasi_100nodes_network.content_distribution 	repo-62_price 	0
scalar barabasi_100nodes_network.content_distribution 	repo-63_card 	0
scalar barabasi_100nodes_network.content_distribution 	repo-63_price 	0
scalar barabasi_100nodes_network.content_distribution 	repo-64_card 	0
scalar barabasi_100nodes_network.content_distribution 	repo-64_price 	0
scalar barabasi_100nodes_network.content_distribution 	repo-65_card 	0
scalar barabasi_100nodes_network.content_distribution 	repo-65_price 	0
scalar barabasi_100nodes_network.content_distribution 	repo-66_card 	0
scalar barabasi_100nodes_network.content_distribution 	repo-66_price 	0
scalar barabasi_100nodes_network.content_distribution 	repo-67_card 	0
scalar barabasi_100nodes_network.content_distribution 	repo-67_price 	0
scalar barabasi_100nodes_network.content_distribution 	repo-68_card 	0
scalar barabasi_100nodes_network.content_distribution 	repo-68_price 	0
scalar barabasi_100nodes_network.content_distribution 	repo-69_card 	0
scalar barabasi_100nodes_network.content_distribution 	repo-69_price 	0
scalar barabasi_100nodes_network.content_distribution 	repo-70_card 	0
scalar barabasi_100nodes_network.content_distribution 	repo-70_price 	0
scalar barabasi_100nodes_network.content_distribution 	repo-71_card 	0
scalar barabasi_100nodes_network.content_distribution 	repo-71_price 	0
scalar barabasi_100nodes_network.content_distribution 	repo-72_card 	0
scalar barabasi_100nodes_network.content_distribution 	repo-72_price 	0
scalar barabasi_100nodes_network.content_distribution 	repo-73_card 	0
scalar barabasi_100nodes_network.content_distribution 	repo-73_price 	0
scalar barabasi_100nodes_network.content_distribution 	repo-74_card 	0
scalar barabasi_100nodes_network.content_distribution 	repo-74_price 	0
scalar barabasi_100nodes_network.content_distribution 	repo-75_card 	0
scalar barabasi_100nodes_network.content_distribution 	repo-75_price 	0
scalar barabasi_100nodes_network.content_distribution 	repo-76_card 	0
scalar barabasi_100nodes_network.content_distribution 	repo-76_price 	0
scalar barabasi_100nodes_network.content_distribution 	repo-77_card 	0
scalar barabasi_100nodes_network.content_distribution 	repo-77_price 	0
scalar barabasi_100nodes_network.content_distribution 	repo-78_card 	0
scalar barabasi_100nodes_network.content_distribution 	repo-78_price 	0
scalar barabasi_100nodes_network.content_distribution 	repo-79_card 	0
scalar barabasi_100nodes_network.content_distribution 	repo-79_price 	0
scalar barabasi_100nodes_network.content_distribution 	repo-80_card 	0
scalar barabasi_100nodes_network.content_distribution 	repo-80_price 	0
scalar barabasi_100nodes_network.content_distribution 	repo-81_card 	0
scalar barabasi_100nodes_network.content_distribution 	repo-81_price 	0
scalar barabasi_100nodes_network.content_distribution 	repo-82_card 	0
scalar barabasi_100nodes_network.content_distribution 	repo-82_price 	0
scalar barabasi_100nodes_network.content_distribution 	repo-83_card 	0
scalar barabasi_100nodes_network.content_distribution 	repo-83_price 	0
scalar barabasi_100nodes_network.content_distribution 	repo-84_card 	0
scalar barabasi_100nodes_network.content_distribution 	repo-84_price 	0
scalar barabasi_100nodes_network.content_distribution 	repo-85_card 	0
scalar barabasi_100nodes_network.content_distribution 	repo-85_price 	0
scalar barabasi_100nodes_network.content_distribution 	repo-86_card 	0
scalar barabasi_100nodes_network.content_distribution 	repo-86_price 	0
scalar barabasi_100nodes_network.content_distribution 	repo-87_card 	0
scalar barabasi_100nodes_network.content_distribution 	repo-87_price 	0
scalar barabasi_100nodes_network.content_distribution 	repo-88_card 	0
scalar barabasi_100nodes_network.content_distribution 	repo-88_price 	0
scalar barabasi_100nodes_network.content_distribution 	repo-89_card 	0
scalar barabasi_100nodes_network.content_distribution 	repo-89_price 	0
scalar barabasi_100nodes_network.content_distribution 	repo-90_card 	0
scalar barabasi_100nodes_network.content_distribution 	repo-90_price 	0
scalar barabasi_100nodes_network.content_distribution 	repo-91_card 	0
scalar barabasi_100nodes_network.content_distribution 	repo-91_price 	0
scalar barabasi_100nodes_network.content_distribution 	repo-92_card 	0
scalar barabasi_100nodes_network.content_distribution 	repo-92_price 	0
scalar barabasi_100nodes_network.content_distribution 	repo-93_card 	0
scalar barabasi_100nodes_network.content_distribution 	repo-93_price 	0
scalar barabasi_100nodes_network.content_distribution 	repo-94_card 	0
scalar barabasi_100nodes_network.content_distribution 	repo-94_price 	0
scalar barabasi_100nodes_network.content_distribution 	repo-95_card 	0
scalar barabasi_100nodes_network.content_distribution 	repo-95_price 	0
scalar barabasi_100nodes_network.content_distribution 	repo-96_card 	0
scalar barabasi_100nodes_network.content_distribution 	repo-96_price 	0
scalar barabasi_100nodes_network.content_distribution 	repo-97_card 	0
scalar barabasi_100nodes_network.content_distribution 	repo-97_price 	0
scalar barabasi_100nodes_network.content_distribution 	repo-98_card 	0
scalar barabasi_100nodes_network.content_distribution 	repo-98_price 	0
scalar barabasi_100nodes_network.content_distribution 	repo-99_card 	0
scalar barabasi_100nodes_network.content_distribution 	repo-99_price 	0
scalar barabasi_100nodes_network.statistics 	stabilization_time 	36060
scalar barabasi_100nodes_network.statistics 	p_hit 	0.31287036180777
scalar barabasi_100nodes_network.statistics 	interests 	468769.65
scalar barabasi_100nodes_network.statistics 	data 	255329.36
scalar barabasi_100nodes_network.statistics 	hdistance 	1.2936828181072
scalar barabasi_100nodes_network.statistics 	avg_time 	0
scalar barabasi_100nodes_network.statistics 	downloads 	18002418
scalar barabasi_100nodes_network.statistics 	total_cost 	0
scalar barabasi_100nodes_network.statistics 	total_replicas 	1000000
scalar barabasi_100nodes_network.statistics 	"representations_downloaded 0.32132:0.0326714:0.0236707:0.0229497:0.599388:" 	0
scalar barabasi_100nodes_network.statistics 	"slots_per_representation 100:233:500:833:1167:" 	0
scalar barabasi_100nodes_network.statistics 	inner_hit 	0.62907116144065
scalar barabasi_100nodes_network.statistics 	execution_time 	19270
scalar barabasi_100nodes_network.node[0].core_layer 	interests[0] 	3457210
scalar barabasi_100nodes_network.node[0].core_layer 	data[0] 	2786407
scalar barabasi_100nodes_network.node[0].core_layer 	slots_sent[face$o[1]->client[0]] 	128018297
scalar barabasi_100nodes_network.node[0].core_layer 	slots_sent[face$o[2]->node[1]] 	24768379
scalar barabasi_100nodes_network.node[0].core_layer 	slots_sent[face$o[3]->node[2]] 	342123869
scalar barabasi_100nodes_network.node[0].core_layer 	slots_sent[face$o[4]->node[5]] 	87976180
scalar barabasi_100nodes_network.node[0].core_layer 	slots_sent[face$o[5]->node[10]] 	46601877
scalar barabasi_100nodes_network.node[0].core_layer 	slots_sent[face$o[6]->node[11]] 	24701427
scalar barabasi_100nodes_network.node[0].core_layer 	slots_sent[face$o[7]->node[15]] 	67953819
scalar barabasi_100nodes_network.node[0].core_layer 	slots_sent[face$o[8]->node[21]] 	67769060
scalar barabasi_100nodes_network.node[0].core_layer 	slots_sent[face$o[9]->node[22]] 	24730422
scalar barabasi_100nodes_network.node[0].core_layer 	slots_sent[face$o[10]->node[28]] 	24782149
scalar barabasi_100nodes_network.node[0].core_layer 	slots_sent[face$o[11]->node[37]] 	24796216
scalar barabasi_100nodes_network.node[0].core_layer 	slots_sent[face$o[12]->node[44]] 	24686057
scalar barabasi_100nodes_network.node[0].core_layer 	slots_sent[face$o[13]->node[58]] 	46528083
scalar barabasi_100nodes_network.node[0].core_layer 	slots_sent[face$o[14]->node[73]] 	46530346
scalar barabasi_100nodes_network.node[0].core_layer 	slots_sent[face$o[15]->node[74]] 	16997798
scalar barabasi_100nodes_network.node[0].core_layer 	slots_sent[face$o[16]->node[93]] 	24610304
scalar barabasi_100nodes_network.node[0].content_store 	p_hit[0] 	0.19403015726554
scalar barabasi_100nodes_network.node[0].content_store 	hits[0] 	670803
scalar barabasi_100nodes_network.node[0].content_store 	misses[0] 	2786407
scalar barabasi_100nodes_network.node[0].content_store 	decision_yes[0] 	2786407
scalar barabasi_100nodes_network.node[0].content_store 	decision_no[0] 	0
scalar barabasi_100nodes_network.node[0].content_store 	decision_ratio[0] 	1
scalar barabasi_100nodes_network.node[0].content_store 	"representation_breakdown[0] 27082:5476:2511:1753:4258:" 	0
scalar barabasi_100nodes_network.node[0].proactive_component 	hdistance[0].proactive_component 	2.1514486911464
scalar barabasi_100nodes_network.node[0].proactive_component 	downloads[0].proactive_component 	8333971
scalar barabasi_100nodes_network.node[0].proactive_component 	avg_time[0].proactive_component 	0
scalar barabasi_100nodes_network.node[1].core_layer 	interests[1] 	191900
scalar barabasi_100nodes_network.node[1].core_layer 	data[1] 	73433
scalar barabasi_100nodes_network.node[1].core_layer 	slots_sent[face$o[1]->client[1]] 	143666532
scalar barabasi_100nodes_network.node[1].core_layer 	slots_sent[face$o[2]->node[0]] 	0
scalar barabasi_100nodes_network.node[1].content_store 	p_hit[1] 	0.61733715476811
scalar barabasi_100nodes_network.node[1].content_store 	hits[1] 	118467
scalar barabasi_100nodes_network.node[1].content_store 	misses[1] 	73433
scalar barabasi_100nodes_network.node[1].content_store 	decision_yes[1] 	73433
scalar barabasi_100nodes_network.node[1].content_store 	decision_no[1] 	0
scalar barabasi_100nodes_network.node[1].content_store 	decision_ratio[1] 	1
scalar barabasi_100nodes_network.node[1].content_store 	"representation_breakdown[1] 22859:3004:1559:1326:5827:" 	0
scalar barabasi_100nodes_network.node[1].proactive_component 	hdistance[1].proactive_component 	3.0448926404683
scalar barabasi_100nodes_network.node[1].proactive_component 	downloads[1].proactive_component 	258617
scalar barabasi_100nodes_network.node[1].proactive_component 	avg_time[1].proactive_component 	0
scalar barabasi_100nodes_network.node[2].core_layer 	interests[2] 	6497367
scalar barabasi_100nodes_network.node[2].core_layer 	data[2] 	5393577
scalar barabasi_100nodes_network.node[2].core_layer 	slots_sent[face$o[1]->client[2]] 	123220299
scalar barabasi_100nodes_network.node[2].core_layer 	slots_sent[face$o[2]->node[0]] 	392688395
scalar barabasi_100nodes_network.node[2].core_layer 	slots_sent[face$o[3]->node[3]] 	46701547
scalar barabasi_100nodes_network.node[2].core_layer 	slots_sent[face$o[4]->node[4]] 	75377109
scalar barabasi_100nodes_network.node[2].core_layer 	slots_sent[face$o[5]->node[6]] 	24691549
scalar barabasi_100nodes_network.node[2].core_layer 	slots_sent[face$o[6]->node[7]] 	223876102
scalar barabasi_100nodes_network.node[2].core_layer 	slots_sent[face$o[7]->node[8]] 	159128408
scalar barabasi_100nodes_network.node[2].core_layer 	slots_sent[face$o[8]->node[13]] 	108292310
scalar barabasi_100nodes_network.node[2].core_layer 	slots_sent[face$o[9]->node[16]] 	109944276
scalar barabasi_100nodes_network.node[2].core_layer 	slots_sent[face$o[10]->node[18]] 	82710030
scalar barabasi_100nodes_network.node[2].core_layer 	slots_sent[face$o[11]->node[25]] 	46744727
scalar barabasi_100nodes_network.node[2].core_layer 	slots_sent[face$o[12]->node[26]] 	82407279
scalar barabasi_100nodes_network.node[2].core_layer 	slots_sent[face$o[13]->node[29]] 	24847589
scalar barabasi_100nodes_network.node[2].core_layer 	slots_sent[face$o[14]->node[32]] 	61910627
scalar barabasi_100nodes_network.node[2].core_layer 	slots_sent[face$o[15]->node[33]] 	24634162
scalar barabasi_100nodes_network.node[2].core_layer 	slots_sent[face$o[16]->node[34]] 	24694663
scalar barabasi_100nodes_network.node[2].core_layer 	slots_sent[face$o[17]->node[36]] 	46862511
scalar barabasi_100nodes_network.node[2].core_layer 	slots_sent[face$o[18]->node[41]] 	127829514
scalar barabasi_100nodes_network.node[2].core_layer 	slots_sent[face$o[19]->node[45]] 	17734898
scalar barabasi_100nodes_network.node[2].core_layer 	slots_sent[face$o[20]->node[59]] 	24776325
scalar barabasi_100nodes_network.node[2].core_layer 	slots_sent[face$o[21]->node[62]] 	67171282
scalar barabasi_100nodes_network.node[2].core_layer 	slots_sent[face$o[22]->node[79]] 	24653379
scalar barabasi_100nodes_network.node[2].content_store 	p_hit[2] 	0.16988266169973
scalar barabasi_100nodes_network.node[2].content_store 	hits[2] 	1103790
scalar barabasi_100nodes_network.node[2].content_store 	misses[2] 	5393577
scalar barabasi_100nodes_network.node[2].content_store 	decision_yes[2] 	5393577
scalar barabasi_100nodes_network.node[2].content_store 	decision_no[2] 	0
scalar barabasi_100nodes_network.node[2].content_store 	decision_ratio[2] 	1
scalar barabasi_100nodes_network.node[2].content_store 	"representation_breakdown[2] 26385:5318:2497:1881:4264:" 	0
scalar barabasi_100nodes_network.node[2].proactive_component 	hdistance[2].proactive_component 	2.3583523375361
scalar barabasi_100nodes_network.node[2].proactive_component 	downloads[2].proactive_component 	14015759
scalar barabasi_100nodes_network.node[2].proactive_component 	avg_time[2].proactive_component 	0
scalar barabasi_100nodes_network.node[3].core_layer 	interests[3] 	271825
scalar barabasi_100nodes_network.node[3].core_layer 	data[3] 	142570
scalar barabasi_100nodes_network.node[3].core_layer 	slots_sent[face$o[1]->client[3]] 	142252069
scalar barabasi_100nodes_network.node[3].core_layer 	slots_sent[face$o[2]->node[2]] 	0
scalar barabasi_100nodes_network.node[3].core_layer 	slots_sent[face$o[3]->node[52]] 	24754818
scalar barabasi_100nodes_network.node[3].content_store 	p_hit[3] 	0.47550813942794
scalar barabasi_100nodes_network.node[3].content_store 	hits[3] 	129255
scalar barabasi_100nodes_network.node[3].content_store 	misses[3] 	142570
scalar barabasi_100nodes_network.node[3].content_store 	decision_yes[3] 	142570
scalar barabasi_100nodes_network.node[3].content_store 	decision_no[3] 	0
scalar barabasi_100nodes_network.node[3].content_store 	decision_ratio[3] 	1
scalar barabasi_100nodes_network.node[3].content_store 	"representation_breakdown[3] 23554:3415:1798:1332:5578:" 	0
scalar barabasi_100nodes_network.node[3].proactive_component 	hdistance[3].proactive_component 	2.7521616143941
scalar barabasi_100nodes_network.node[3].proactive_component 	downloads[3].proactive_component 	411498
scalar barabasi_100nodes_network.node[3].proactive_component 	avg_time[3].proactive_component 	0
scalar barabasi_100nodes_network.node[4].core_layer 	interests[4] 	497689
scalar barabasi_100nodes_network.node[4].core_layer 	repo_load[4] 	112232
scalar barabasi_100nodes_network.node[4].core_layer 	data[4] 	245271
scalar barabasi_100nodes_network.node[4].core_layer 	slots_sent[face$o[1]->client[4]] 	120533685
scalar barabasi_100nodes_network.node[4].core_layer 	slots_sent[face$o[2]->node[2]] 	0
scalar barabasi_100nodes_network.node[4].core_layer 	slots_sent[face$o[3]->node[27]] 	44244904
scalar barabasi_100nodes_network.node[4].core_layer 	slots_sent[face$o[4]->node[30]] 	25621290
scalar barabasi_100nodes_network.node[4].core_layer 	slots_sent[face$o[5]->node[85]] 	17300196
scalar barabasi_100nodes_network.node[4].content_store 	p_hit[4] 	0.28167389675078
scalar barabasi_100nodes_network.node[4].content_store 	hits[4] 	140186
scalar barabasi_100nodes_network.node[4].content_store 	misses[4] 	357503
scalar barabasi_100nodes_network.node[4].content_store 	decision_yes[4] 	245271
scalar barabasi_100nodes_network.node[4].content_store 	decision_no[4] 	112232
scalar barabasi_100nodes_network.node[4].content_store 	decision_ratio[4] 	0.68606697006738
scalar barabasi_100nodes_network.node[4].content_store 	"representation_breakdown[4] 25750:4492:1974:1524:4963:" 	0
scalar barabasi_100nodes_network.node[4].proactive_component 	hdistance[4].proactive_component 	2.9768481566898
scalar barabasi_100nodes_network.node[4].proactive_component 	downloads[4].proactive_component 	747975
scalar barabasi_100nodes_network.node[4].proactive_component 	avg_time[4].proactive_component 	0
scalar barabasi_100nodes_network.node[5].core_layer 	interests[5] 	423898
scalar barabasi_100nodes_network.node[5].core_layer 	data[5] 	275166
scalar barabasi_100nodes_network.node[5].core_layer 	slots_sent[face$o[1]->client[5]] 	140530742
scalar barabasi_100nodes_network.node[5].core_layer 	slots_sent[face$o[2]->node[0]] 	0
scalar barabasi_100nodes_network.node[5].core_layer 	slots_sent[face$o[3]->node[9]] 	25049487
scalar barabasi_100nodes_network.node[5].core_layer 	slots_sent[face$o[4]->node[35]] 	46780903
scalar barabasi_100nodes_network.node[5].content_store 	p_hit[5] 	0.35086742565428
scalar barabasi_100nodes_network.node[5].content_store 	hits[5] 	148732
scalar barabasi_100nodes_network.node[5].content_store 	misses[5] 	275166
scalar barabasi_100nodes_network.node[5].content_store 	decision_yes[5] 	275166
scalar barabasi_100nodes_network.node[5].content_store 	decision_no[5] 	0
scalar barabasi_100nodes_network.node[5].content_store 	decision_ratio[5] 	1
scalar barabasi_100nodes_network.node[5].content_store 	"representation_breakdown[5] 24064:3844:1842:1544:5279:" 	0
scalar barabasi_100nodes_network.node[5].proactive_component 	hdistance[5].proactive_component 	3.0563729665594
scalar barabasi_100nodes_network.node[5].proactive_component 	downloads[5].proactive_component 	669186
scalar barabasi_100nodes_network.node[5].proactive_component 	avg_time[5].proactive_component 	0
scalar barabasi_100nodes_network.node[6].core_layer 	interests[6] 	193071
scalar barabasi_100nodes_network.node[6].core_layer 	data[6] 	74039
scalar barabasi_100nodes_network.node[6].core_layer 	slots_sent[face$o[1]->client[6]] 	143447194
scalar barabasi_100nodes_network.node[6].core_layer 	slots_sent[face$o[2]->node[2]] 	0
scalar barabasi_100nodes_network.node[6].content_store 	p_hit[6] 	0.6165193115486
scalar barabasi_100nodes_network.node[6].content_store 	hits[6] 	119032
scalar barabasi_100nodes_network.node[6].content_store 	misses[6] 	74039
scalar barabasi_100nodes_network.node[6].content_store 	decision_yes[6] 	74039
scalar barabasi_100nodes_network.node[6].content_store 	decision_no[6] 	0
scalar barabasi_100nodes_network.node[6].content_store 	decision_ratio[6] 	1
scalar barabasi_100nodes_network.node[6].content_store 	"representation_breakdown[6] 23177:3205:1584:1351:5731:" 	0
scalar barabasi_100nodes_network.node[6].proactive_component 	hdistance[6].proactive_component 	2.7762150300878
scalar barabasi_100nodes_network.node[6].proactive_component 	downloads[6].proactive_component 	267051
scalar barabasi_100nodes_network.node[6].proactive_component 	avg_time[6].proactive_component 	0
scalar barabasi_100nodes_network.node[7].core_layer 	interests[7] 	2501353
scalar barabasi_100nodes_network.node[7].core_layer 	data[7] 	2028394
scalar barabasi_100nodes_network.node[7].core_layer 	slots_sent[face$o[1]->client[7]] 	131237254
scalar barabasi_100nodes_network.node[7].core_layer 	slots_sent[face$o[2]->node[2]] 	416413935
scalar barabasi_100nodes_network.node[7].core_layer 	slots_sent[face$o[3]->node[23]] 	131406014
scalar barabasi_100nodes_network.node[7].core_layer 	slots_sent[face$o[4]->node[31]] 	88273790
scalar barabasi_100nodes_network.node[7].core_layer 	slots_sent[face$o[5]->node[49]] 	17104803
scalar barabasi_100nodes_network.node[7].core_layer 	slots_sent[face$o[6]->node[90]] 	16755487
scalar barabasi_100nodes_network.node[7].content_store 	p_hit[7] 	0.1890812692171
scalar barabasi_100nodes_network.node[7].content_store 	hits[7] 	472959
scalar barabasi_100nodes_network.node[7].content_store 	misses[7] 	2028394
scalar barabasi_100nodes_network.node[7].content_store 	decision_yes[7] 	2028394
scalar barabasi_100nodes_network.node[7].content_store 	decision_no[7] 	0
scalar barabasi_100nodes_network.node[7].content_store 	decision_ratio[7] 	1
scalar barabasi_100nodes_network.node[7].content_store 	"representation_breakdown[7] 25474:5103:2406:1770:4504:" 	0
scalar barabasi_100nodes_network.node[7].proactive_component 	hdistance[7].proactive_component 	3.0489399266084
scalar barabasi_100nodes_network.node[7].proactive_component 	downloads[7].proactive_component 	5325386
scalar barabasi_100nodes_network.node[7].proactive_component 	avg_time[7].proactive_component 	0
scalar barabasi_100nodes_network.node[8].core_layer 	interests[8] 	702936
scalar barabasi_100nodes_network.node[8].core_layer 	data[8] 	504252
scalar barabasi_100nodes_network.node[8].core_layer 	slots_sent[face$o[1]->client[8]] 	138529247
scalar barabasi_100nodes_network.node[8].core_layer 	slots_sent[face$o[2]->node[2]] 	0
scalar barabasi_100nodes_network.node[8].core_layer 	slots_sent[face$o[3]->node[12]] 	17868214
scalar barabasi_100nodes_network.node[8].core_layer 	slots_sent[face$o[4]->node[14]] 	25073388
scalar barabasi_100nodes_network.node[8].core_layer 	slots_sent[face$o[5]->node[17]] 	25121896
scalar barabasi_100nodes_network.node[8].core_layer 	slots_sent[face$o[6]->node[39]] 	40775624
scalar barabasi_100nodes_network.node[8].core_layer 	slots_sent[face$o[7]->node[61]] 	25191986
scalar barabasi_100nodes_network.node[8].core_layer 	slots_sent[face$o[8]->node[66]] 	25139804
scalar barabasi_100nodes_network.node[8].content_store 	p_hit[8] 	0.28264877599099
scalar barabasi_100nodes_network.node[8].content_store 	hits[8] 	198684
scalar barabasi_100nodes_network.node[8].content_store 	misses[8] 	504252
scalar barabasi_100nodes_network.node[8].content_store 	decision_yes[8] 	504252
scalar barabasi_100nodes_network.node[8].content_store 	decision_no[8] 	0
scalar barabasi_100nodes_network.node[8].content_store 	decision_ratio[8] 	1
scalar barabasi_100nodes_network.node[8].content_store 	"representation_breakdown[8] 24340:4057:2024:1558:5125:" 	0
scalar barabasi_100nodes_network.node[8].proactive_component 	hdistance[8].proactive_component 	2.7752416741636
scalar barabasi_100nodes_network.node[8].proactive_component 	downloads[8].proactive_component 	1292753
scalar barabasi_100nodes_network.node[8].proactive_component 	avg_time[8].proactive_component 	0
scalar barabasi_100nodes_network.node[9].core_layer 	interests[9] 	190642
scalar barabasi_100nodes_network.node[9].core_layer 	data[9] 	72462
scalar barabasi_100nodes_network.node[9].core_layer 	slots_sent[face$o[1]->client[9]] 	146787645
scalar barabasi_100nodes_network.node[9].core_layer 	slots_sent[face$o[2]->node[5]] 	0
scalar barabasi_100nodes_network.node[9].content_store 	p_hit[9] 	0.61990537237335
scalar barabasi_100nodes_network.node[9].content_store 	hits[9] 	118180
scalar barabasi_100nodes_network.node[9].content_store 	misses[9] 	72462
scalar barabasi_100nodes_network.node[9].content_store 	decision_yes[9] 	72462
scalar barabasi_100nodes_network.node[9].content_store 	decision_no[9] 	0
scalar barabasi_100nodes_network.node[9].content_store 	decision_ratio[9] 	1
scalar barabasi_100nodes_network.node[9].content_store 	"representation_breakdown[9] 21863:2905:1481:1261:6011:" 	0
scalar barabasi_100nodes_network.node[9].proactive_component 	hdistance[9].proactive_component 	3.3356075343234
scalar barabasi_100nodes_network.node[9].proactive_component 	downloads[9].proactive_component 	213848
scalar barabasi_100nodes_network.node[9].proactive_component 	avg_time[9].proactive_component 	0
scalar barabasi_100nodes_network.node[10].core_layer 	interests[10] 	272551
scalar barabasi_100nodes_network.node[10].core_layer 	data[10] 	142659
scalar barabasi_100nodes_network.node[10].core_layer 	slots_sent[face$o[1]->client[10]] 	143462255
scalar barabasi_100nodes_network.node[10].core_layer 	slots_sent[face$o[2]->node[0]] 	0
scalar barabasi_100nodes_network.node[10].core_layer 	slots_sent[face$o[3]->node[71]] 	24672619
scalar barabasi_100nodes_network.node[10].content_store 	p_hit[10] 	0.47657869536344
scalar barabasi_100nodes_network.node[10].content_store 	hits[10] 	129892
scalar barabasi_100nodes_network.node[10].content_store 	misses[10] 	142659
scalar barabasi_100nodes_network.node[10].content_store 	decision_yes[10] 	142659
scalar barabasi_100nodes_network.node[10].content_store 	decision_no[10] 	0
scalar barabasi_100nodes_network.node[10].content_store 	decision_ratio[10] 	1
scalar barabasi_100nodes_network.node[10].content_store 	"representation_breakdown[10] 23547:3518:1706:1455:5510:" 	0
scalar barabasi_100nodes_network.node[10].proactive_component 	hdistance[10].proactive_component 	3.038264441387
scalar barabasi_100nodes_network.node[10].proactive_component 	downloads[10].proactive_component 	401208
scalar barabasi_100nodes_network.node[10].proactive_component 	avg_time[10].proactive_component 	0
scalar barabasi_100nodes_network.node[11].core_layer 	interests[11] 	192640
scalar barabasi_100nodes_network.node[11].core_layer 	data[11] 	73589
scalar barabasi_100nodes_network.node[11].core_layer 	slots_sent[face$o[1]->client[11]] 	144117419
scalar barabasi_100nodes_network.node[11].core_layer 	slots_sent[face$o[2]->node[0]] 	0
scalar barabasi_100nodes_network.node[11].content_store 	p_hit[11] 	0.61799730066445
scalar barabasi_100nodes_network.node[11].content_store 	hits[11] 	119051
scalar barabasi_100nodes_network.node[11].content_store 	misses[11] 	73589
scalar barabasi_100nodes_network.node[11].content_store 	decision_yes[11] 	73589
scalar barabasi_100nodes_network.node[11].content_store 	decision_no[11] 	0
scalar barabasi_100nodes_network.node[11].content_store 	decision_ratio[11] 	1
scalar barabasi_100nodes_network.node[11].content_store 	"representation_breakdown[11] 23021:2979:1571:1410:5753:" 	0
scalar barabasi_100nodes_network.node[11].proactive_component 	hdistance[11].proactive_component 	3.0494485824817
scalar barabasi_100nodes_network.node[11].proactive_component 	downloads[11].proactive_component 	259785
scalar barabasi_100nodes_network.node[11].proactive_component 	avg_time[11].proactive_component 	0
scalar barabasi_100nodes_network.node[12].core_layer 	interests[12] 	187243
scalar barabasi_100nodes_network.node[12].core_layer 	repo_load[12] 	49326
scalar barabasi_100nodes_network.node[12].core_layer 	data[12] 	50912
scalar barabasi_100nodes_network.node[12].core_layer 	slots_sent[face$o[1]->client[12]] 	111675607
scalar barabasi_100nodes_network.node[12].core_layer 	slots_sent[face$o[2]->node[8]] 	0
scalar barabasi_100nodes_network.node[12].content_store 	p_hit[12] 	0.46466356552715
scalar barabasi_100nodes_network.node[12].content_store 	hits[12] 	87005
scalar barabasi_100nodes_network.node[12].content_store 	misses[12] 	100238
scalar barabasi_100nodes_network.node[12].content_store 	decision_yes[12] 	50912
scalar barabasi_100nodes_network.node[12].content_store 	decision_no[12] 	49326
scalar barabasi_100nodes_network.node[12].content_store 	decision_ratio[12] 	0.50791117141204
scalar barabasi_100nodes_network.node[12].content_store 	"representation_breakdown[12] 21209:2966:1505:1267:6041:" 	0
scalar barabasi_100nodes_network.node[12].proactive_component 	hdistance[12].proactive_component 	3.5749487018301
scalar barabasi_100nodes_network.node[12].proactive_component 	downloads[12].proactive_component 	168622
scalar barabasi_100nodes_network.node[12].proactive_component 	avg_time[12].proactive_component 	0
scalar barabasi_100nodes_network.node[13].core_layer 	interests[13] 	495549
scalar barabasi_100nodes_network.node[13].core_layer 	data[13] 	341142
scalar barabasi_100nodes_network.node[13].core_layer 	slots_sent[face$o[1]->client[13]] 	140024381
scalar barabasi_100nodes_network.node[13].core_layer 	slots_sent[face$o[2]->node[2]] 	0
scalar barabasi_100nodes_network.node[13].core_layer 	slots_sent[face$o[3]->node[67]] 	25439399
scalar barabasi_100nodes_network.node[13].core_layer 	slots_sent[face$o[4]->node[78]] 	67619294
scalar barabasi_100nodes_network.node[13].content_store 	p_hit[13] 	0.31158775418778
scalar barabasi_100nodes_network.node[13].content_store 	hits[13] 	154407
scalar barabasi_100nodes_network.node[13].content_store 	misses[13] 	341142
scalar barabasi_100nodes_network.node[13].content_store 	decision_yes[13] 	341142
scalar barabasi_100nodes_network.node[13].content_store 	decision_no[13] 	0
scalar barabasi_100nodes_network.node[13].content_store 	decision_ratio[13] 	1
scalar barabasi_100nodes_network.node[13].content_store 	"representation_breakdown[13] 24014:3817:1861:1506:5307:" 	0
scalar barabasi_100nodes_network.node[13].proactive_component 	hdistance[13].proactive_component 	2.7401481870913
scalar barabasi_100nodes_network.node[13].proactive_component 	downloads[13].proactive_component 	753237
scalar barabasi_100nodes_network.node[13].proactive_component 	avg_time[13].proactive_component 	0
scalar barabasi_100nodes_network.node[14].core_layer 	interests[14] 	190223
scalar barabasi_100nodes_network.node[14].core_layer 	data[14] 	72208
scalar barabasi_100nodes_network.node[14].core_layer 	slots_sent[face$o[1]->client[14]] 	146250093
scalar barabasi_100nodes_network.node[14].core_layer 	slots_sent[face$o[2]->node[8]] 	0
scalar barabasi_100nodes_network.node[14].content_store 	p_hit[14] 	0.62040342124769
scalar barabasi_100nodes_network.node[14].content_store 	hits[14] 	118015
scalar barabasi_100nodes_network.node[14].content_store 	misses[14] 	72208
scalar barabasi_100nodes_network.node[14].content_store 	decision_yes[14] 	72208
scalar barabasi_100nodes_network.node[14].content_store 	decision_no[14] 	0
scalar barabasi_100nodes_network.node[14].content_store 	decision_ratio[14] 	1
scalar barabasi_100nodes_network.node[14].content_store 	"representation_breakdown[14] 21691:2979:1437:1306:5998:" 	0
scalar barabasi_100nodes_network.node[14].proactive_component 	hdistance[14].proactive_component 	3.1434151785714
scalar barabasi_100nodes_network.node[14].proactive_component 	downloads[14].proactive_component 	218624
scalar barabasi_100nodes_network.node[14].proactive_component 	avg_time[14].proactive_component 	0
scalar barabasi_100nodes_network.node[15].core_layer 	interests[15] 	350972
scalar barabasi_100nodes_network.node[15].core_layer 	data[15] 	209089
scalar barabasi_100nodes_network.node[15].core_layer 	slots_sent[face$o[1]->client[15]] 	141696800
scalar barabasi_100nodes_network.node[15].core_layer 	slots_sent[face$o[2]->node[0]] 	0
scalar barabasi_100nodes_network.node[15].core_layer 	slots_sent[face$o[3]->node[40]] 	25020074
scalar barabasi_100nodes_network.node[15].core_layer 	slots_sent[face$o[4]->node[56]] 	24965894
scalar barabasi_100nodes_network.node[15].content_store 	p_hit[15] 	0.40425731967222
scalar barabasi_100nodes_network.node[15].content_store 	hits[15] 	141883
scalar barabasi_100nodes_network.node[15].content_store 	misses[15] 	209089
scalar barabasi_100nodes_network.node[15].content_store 	decision_yes[15] 	209089
scalar barabasi_100nodes_network.node[15].content_store 	decision_no[15] 	0
scalar barabasi_100nodes_network.node[15].content_store 	decision_ratio[15] 	1
scalar barabasi_100nodes_network.node[15].content_store 	"representation_breakdown[15] 23851:3632:1734:1489:5425:" 	0
scalar barabasi_100nodes_network.node[15].proactive_component 	hdistance[15].proactive_component 	3.077252694954
scalar barabasi_100nodes_network.node[15].proactive_component 	downloads[15].proactive_component 	565223
scalar barabasi_100nodes_network.node[15].proactive_component 	avg_time[15].proactive_component 	0
scalar barabasi_100nodes_network.node[16].core_layer 	interests[16] 	2171204
scalar barabasi_100nodes_network.node[16].core_layer 	repo_load[16] 	1707240
scalar barabasi_100nodes_network.node[16].core_layer 	data[16] 	340883
scalar barabasi_100nodes_network.node[16].core_layer 	slots_sent[face$o[1]->client[16]] 	107684310
scalar barabasi_100nodes_network.node[16].core_layer 	slots_sent[face$o[2]->node[2]] 	396120169
scalar barabasi_100nodes_network.node[16].core_layer 	slots_sent[face$o[3]->node[19]] 	107733913
scalar barabasi_100nodes_network.node[16].core_layer 	slots_sent[face$o[4]->node[20]] 	24545881
scalar barabasi_100nodes_network.node[16].content_store 	p_hit[16] 	0.056687902196201
scalar barabasi_100nodes_network.node[16].content_store 	hits[16] 	123081
scalar barabasi_100nodes_network.node[16].content_store 	misses[16] 	2048123
scalar barabasi_100nodes_network.node[16].content_store 	decision_yes[16] 	340883
scalar barabasi_100nodes_network.node[16].content_store 	decision_no[16] 	1707240
scalar barabasi_100nodes_network.node[16].content_store 	decision_ratio[16] 	0.16643678138471
scalar barabasi_100nodes_network.node[16].content_store 	"representation_breakdown[16] 24002:3932:1882:1541:5251:" 	0
scalar barabasi_100nodes_network.node[16].proactive_component 	hdistance[16].proactive_component 	3.0172733338276
scalar barabasi_100nodes_network.node[16].proactive_component 	downloads[16].proactive_component 	647472
scalar barabasi_100nodes_network.node[16].proactive_component 	avg_time[16].proactive_component 	0
scalar barabasi_100nodes_network.node[17].core_layer 	interests[17] 	190508
scalar barabasi_100nodes_network.node[17].core_layer 	data[17] 	72544
scalar barabasi_100nodes_network.node[17].core_layer 	slots_sent[face$o[1]->client[17]] 	146318046
scalar barabasi_100nodes_network.node[17].core_layer 	slots_sent[face$o[2]->node[8]] 	0
scalar barabasi_100nodes_network.node[17].content_store 	p_hit[17] 	0.61920759233208
scalar barabasi_100nodes_network.node[17].content_store 	hits[17] 	117964
scalar barabasi_100nodes_network.node[17].content_store 	misses[17] 	72544
scalar barabasi_100nodes_network.node[17].content_store 	decision_yes[17] 	72544
scalar barabasi_100nodes_network.node[17].content_store 	decision_no[17] 	0
scalar barabasi_100nodes_network.node[17].content_store 	decision_ratio[17] 	1
scalar barabasi_100nodes_network.node[17].content_store 	"representation_breakdown[17] 21887:2983:1461:1222:6030:" 	0
scalar barabasi_100nodes_network.node[17].proactive_component 	hdistance[17].proactive_component 	3.1376151818468
scalar barabasi_100nodes_network.node[17].proactive_component 	downloads[17].proactive_component 	218893
scalar barabasi_100nodes_network.node[17].proactive_component 	avg_time[17].proactive_component 	0
scalar barabasi_100nodes_network.node[18].core_layer 	interests[18] 	409769
scalar barabasi_100nodes_network.node[18].core_layer 	data[18] 	259089
scalar barabasi_100nodes_network.node[18].core_layer 	slots_sent[face$o[1]->client[18]] 	140702483
scalar barabasi_100nodes_network.node[18].core_layer 	slots_sent[face$o[2]->node[2]] 	0
scalar barabasi_100nodes_network.node[18].core_layer 	slots_sent[face$o[3]->node[53]] 	25148682
scalar barabasi_100nodes_network.node[18].core_layer 	slots_sent[face$o[4]->node[68]] 	16541639
scalar barabasi_100nodes_network.node[18].core_layer 	slots_sent[face$o[5]->node[72]] 	25061479
scalar barabasi_100nodes_network.node[18].content_store 	p_hit[18] 	0.3677193735983
scalar barabasi_100nodes_network.node[18].content_store 	hits[18] 	150680
scalar barabasi_100nodes_network.node[18].content_store 	misses[18] 	259089
scalar barabasi_100nodes_network.node[18].content_store 	decision_yes[18] 	259089
scalar barabasi_100nodes_network.node[18].content_store 	decision_no[18] 	0
scalar barabasi_100nodes_network.node[18].content_store 	decision_ratio[18] 	1
scalar barabasi_100nodes_network.node[18].content_store 	"representation_breakdown[18] 23893:3875:1900:1483:5306:" 	0
scalar barabasi_100nodes_network.node[18].proactive_component 	hdistance[18].proactive_component 	2.7540841621122
scalar barabasi_100nodes_network.node[18].proactive_component 	downloads[18].proactive_component 	703143
scalar barabasi_100nodes_network.node[18].proactive_component 	avg_time[18].proactive_component 	0
scalar barabasi_100nodes_network.node[19].core_layer 	interests[19] 	519831
scalar barabasi_100nodes_network.node[19].core_layer 	data[19] 	346486
scalar barabasi_100nodes_network.node[19].core_layer 	slots_sent[face$o[1]->client[19]] 	138560283
scalar barabasi_100nodes_network.node[19].core_layer 	slots_sent[face$o[2]->node[16]] 	0
scalar barabasi_100nodes_network.node[19].core_layer 	slots_sent[face$o[3]->node[63]] 	24733712
scalar barabasi_100nodes_network.node[19].core_layer 	slots_sent[face$o[4]->node[70]] 	24577033
scalar barabasi_100nodes_network.node[19].core_layer 	slots_sent[face$o[5]->node[80]] 	24729801
scalar barabasi_100nodes_network.node[19].core_layer 	slots_sent[face$o[6]->node[89]] 	24481719
scalar barabasi_100nodes_network.node[19].content_store 	p_hit[19] 	0.33346414507792
scalar barabasi_100nodes_network.node[19].content_store 	hits[19] 	173345
scalar barabasi_100nodes_network.node[19].content_store 	misses[19] 	346486
scalar barabasi_100nodes_network.node[19].content_store 	decision_yes[19] 	346486
scalar barabasi_100nodes_network.node[19].content_store 	decision_no[19] 	0
scalar barabasi_100nodes_network.node[19].content_store 	decision_ratio[19] 	1
scalar barabasi_100nodes_network.node[19].content_store 	"representation_breakdown[19] 25394:4037:1930:1565:5073:" 	0
scalar barabasi_100nodes_network.node[19].proactive_component 	hdistance[19].proactive_component 	2.792615330576
scalar barabasi_100nodes_network.node[19].proactive_component 	downloads[19].proactive_component 	1036282
scalar barabasi_100nodes_network.node[19].proactive_component 	avg_time[19].proactive_component 	0
scalar barabasi_100nodes_network.node[20].core_layer 	interests[20] 	194234
scalar barabasi_100nodes_network.node[20].core_layer 	data[20] 	74354
scalar barabasi_100nodes_network.node[20].core_layer 	slots_sent[face$o[1]->client[20]] 	143920146
scalar barabasi_100nodes_network.node[20].core_layer 	slots_sent[face$o[2]->node[16]] 	0
scalar barabasi_100nodes_network.node[20].content_store 	p_hit[20] 	0.6171936942039
scalar barabasi_100nodes_network.node[20].content_store 	hits[20] 	119880
scalar barabasi_100nodes_network.node[20].content_store 	misses[20] 	74354
scalar barabasi_100nodes_network.node[20].content_store 	decision_yes[20] 	74354
scalar barabasi_100nodes_network.node[20].content_store 	decision_no[20] 	0
scalar barabasi_100nodes_network.node[20].content_store 	decision_ratio[20] 	1
scalar barabasi_100nodes_network.node[20].content_store 	"representation_breakdown[20] 23519:3221:1613:1254:5755:" 	0
scalar barabasi_100nodes_network.node[20].proactive_component 	hdistance[20].proactive_component 	2.626607790172
scalar barabasi_100nodes_network.node[20].proactive_component 	downloads[20].proactive_component 	285796
scalar barabasi_100nodes_network.node[20].proactive_component 	avg_time[20].proactive_component 	0
scalar barabasi_100nodes_network.node[21].core_layer 	interests[21] 	351816
scalar barabasi_100nodes_network.node[21].core_layer 	data[21] 	209687
scalar barabasi_100nodes_network.node[21].core_layer 	slots_sent[face$o[1]->client[21]] 	141769971
scalar barabasi_100nodes_network.node[21].core_layer 	slots_sent[face$o[2]->node[0]] 	0
scalar barabasi_100nodes_network.node[21].core_layer 	slots_sent[face$o[3]->node[24]] 	24925459
scalar barabasi_100nodes_network.node[21].core_layer 	slots_sent[face$o[4]->node[57]] 	25061930
scalar barabasi_100nodes_network.node[21].content_store 	p_hit[21] 	0.40398674307024
scalar barabasi_100nodes_network.node[21].content_store 	hits[21] 	142129
scalar barabasi_100nodes_network.node[21].content_store 	misses[21] 	209687
scalar barabasi_100nodes_network.node[21].content_store 	decision_yes[21] 	209687
scalar barabasi_100nodes_network.node[21].content_store 	decision_no[21] 	0
scalar barabasi_100nodes_network.node[21].content_store 	decision_ratio[21] 	1
scalar barabasi_100nodes_network.node[21].content_store 	"representation_breakdown[21] 23963:3620:1822:1425:5426:" 	0
scalar barabasi_100nodes_network.node[21].proactive_component 	hdistance[21].proactive_component 	3.0746391314359
scalar barabasi_100nodes_network.node[21].proactive_component 	downloads[21].proactive_component 	564610
scalar barabasi_100nodes_network.node[21].proactive_component 	avg_time[21].proactive_component 	0
scalar barabasi_100nodes_network.node[22].core_layer 	interests[22] 	192220
scalar barabasi_100nodes_network.node[22].core_layer 	data[22] 	73848
scalar barabasi_100nodes_network.node[22].core_layer 	slots_sent[face$o[1]->client[22]] 	143333553
scalar barabasi_100nodes_network.node[22].core_layer 	slots_sent[face$o[2]->node[0]] 	0
scalar barabasi_100nodes_network.node[22].content_store 	p_hit[22] 	0.61581521173655
scalar barabasi_100nodes_network.node[22].content_store 	hits[22] 	118372
scalar barabasi_100nodes_network.node[22].content_store 	misses[22] 	73848
scalar barabasi_100nodes_network.node[22].content_store 	decision_yes[22] 	73848
scalar barabasi_100nodes_network.node[22].content_store 	decision_no[22] 	0
scalar barabasi_100nodes_network.node[22].content_store 	decision_ratio[22] 	1
scalar barabasi_100nodes_network.node[22].content_store 	"representation_breakdown[22] 22997:2993:1555:1319:5824:" 	0
scalar barabasi_100nodes_network.node[22].proactive_component 	hdistance[22].proactive_component 	3.0455445240689
scalar barabasi_100nodes_network.node[22].proactive_component 	downloads[22].proactive_component 	260668
scalar barabasi_100nodes_network.node[22].proactive_component 	avg_time[22].proactive_component 	0
scalar barabasi_100nodes_network.node[23].core_layer 	interests[23] 	2044688
scalar barabasi_100nodes_network.node[23].core_layer 	data[23] 	1745457
scalar barabasi_100nodes_network.node[23].core_layer 	slots_sent[face$o[1]->client[23]] 	131322649
scalar barabasi_100nodes_network.node[23].core_layer 	slots_sent[face$o[2]->node[7]] 	388298500
scalar barabasi_100nodes_network.node[23].core_layer 	slots_sent[face$o[3]->node[46]] 	47249356
scalar barabasi_100nodes_network.node[23].core_layer 	slots_sent[face$o[4]->node[47]] 	24746004
scalar barabasi_100nodes_network.node[23].core_layer 	slots_sent[face$o[5]->node[51]] 	24757599
scalar barabasi_100nodes_network.node[23].core_layer 	slots_sent[face$o[6]->node[83]] 	24839068
scalar barabasi_100nodes_network.node[23].core_layer 	slots_sent[face$o[7]->node[86]] 	24489550
scalar barabasi_100nodes_network.node[23].content_store 	p_hit[23] 	0.14634555492085
scalar barabasi_100nodes_network.node[23].content_store 	hits[23] 	299231
scalar barabasi_100nodes_network.node[23].content_store 	misses[23] 	1745457
scalar barabasi_100nodes_network.node[23].content_store 	decision_yes[23] 	1745457
scalar barabasi_100nodes_network.node[23].content_store 	decision_no[23] 	0
scalar barabasi_100nodes_network.node[23].content_store 	decision_ratio[23] 	1
scalar barabasi_100nodes_network.node[23].content_store 	"representation_breakdown[23] 25783:5409:2592:1734:4362:" 	0
scalar barabasi_100nodes_network.node[23].proactive_component 	hdistance[23].proactive_component 	2.6669649657721
scalar barabasi_100nodes_network.node[23].proactive_component 	downloads[23].proactive_component 	2994757
scalar barabasi_100nodes_network.node[23].proactive_component 	avg_time[23].proactive_component 	0
scalar barabasi_100nodes_network.node[24].core_layer 	interests[24] 	190330
scalar barabasi_100nodes_network.node[24].core_layer 	data[24] 	72057
scalar barabasi_100nodes_network.node[24].core_layer 	slots_sent[face$o[1]->client[24]] 	146853014
scalar barabasi_100nodes_network.node[24].core_layer 	slots_sent[face$o[2]->node[21]] 	0
scalar barabasi_100nodes_network.node[24].content_store 	p_hit[24] 	0.62141018231493
scalar barabasi_100nodes_network.node[24].content_store 	hits[24] 	118273
scalar barabasi_100nodes_network.node[24].content_store 	misses[24] 	72057
scalar barabasi_100nodes_network.node[24].content_store 	decision_yes[24] 	72057
scalar barabasi_100nodes_network.node[24].content_store 	decision_no[24] 	0
scalar barabasi_100nodes_network.node[24].content_store 	decision_ratio[24] 	1
scalar barabasi_100nodes_network.node[24].content_store 	"representation_breakdown[24] 22103:2919:1512:1280:5961:" 	0
scalar barabasi_100nodes_network.node[24].proactive_component 	hdistance[24].proactive_component 	3.303621416428
scalar barabasi_100nodes_network.node[24].proactive_component 	downloads[24].proactive_component 	214695
scalar barabasi_100nodes_network.node[24].proactive_component 	avg_time[24].proactive_component 	0
scalar barabasi_100nodes_network.node[25].core_layer 	interests[25] 	272283
scalar barabasi_100nodes_network.node[25].core_layer 	data[25] 	143412
scalar barabasi_100nodes_network.node[25].core_layer 	slots_sent[face$o[1]->client[25]] 	141814401
scalar barabasi_100nodes_network.node[25].core_layer 	slots_sent[face$o[2]->node[2]] 	0
scalar barabasi_100nodes_network.node[25].core_layer 	slots_sent[face$o[3]->node[38]] 	24529235
scalar barabasi_100nodes_network.node[25].content_store 	p_hit[25] 	0.47329800244598
scalar barabasi_100nodes_network.node[25].content_store 	hits[25] 	128871
scalar barabasi_100nodes_network.node[25].content_store 	misses[25] 	143412
scalar barabasi_100nodes_network.node[25].content_store 	decision_yes[25] 	143412
scalar barabasi_100nodes_network.node[25].content_store 	decision_no[25] 	0
scalar barabasi_100nodes_network.node[25].content_store 	decision_ratio[25] 	1
scalar barabasi_100nodes_network.node[25].content_store 	"representation_breakdown[25] 23770:3431:1748:1389:5537:" 	0
scalar barabasi_100nodes_network.node[25].proactive_component 	hdistance[25].proactive_component 	2.7558940587111
scalar barabasi_100nodes_network.node[25].proactive_component 	downloads[25].proactive_component 	411813
scalar barabasi_100nodes_network.node[25].proactive_component 	avg_time[25].proactive_component 	0
scalar barabasi_100nodes_network.node[26].core_layer 	interests[26] 	401192
scalar barabasi_100nodes_network.node[26].core_layer 	data[26] 	257840
scalar barabasi_100nodes_network.node[26].core_layer 	slots_sent[face$o[1]->client[26]] 	140228688
scalar barabasi_100nodes_network.node[26].core_layer 	slots_sent[face$o[2]->node[2]] 	0
scalar barabasi_100nodes_network.node[26].core_layer 	slots_sent[face$o[3]->node[77]] 	46672207
scalar barabasi_100nodes_network.node[26].core_layer 	slots_sent[face$o[4]->node[91]] 	17082469
scalar barabasi_100nodes_network.node[26].content_store 	p_hit[26] 	0.35731520070191
scalar barabasi_100nodes_network.node[26].content_store 	hits[26] 	143352
scalar barabasi_100nodes_network.node[26].content_store 	misses[26] 	257840
scalar barabasi_100nodes_network.node[26].content_store 	decision_yes[26] 	257840
scalar barabasi_100nodes_network.node[26].content_store 	decision_no[26] 	0
scalar barabasi_100nodes_network.node[26].content_store 	decision_ratio[26] 	1
scalar barabasi_100nodes_network.node[26].content_store 	"representation_breakdown[26] 23959:3768:1793:1508:5350:" 	0
scalar barabasi_100nodes_network.node[26].proactive_component 	hdistance[26].proactive_component 	2.7610752260918
scalar barabasi_100nodes_network.node[26].proactive_component 	downloads[26].proactive_component 	619107
scalar barabasi_100nodes_network.node[26].proactive_component 	avg_time[26].proactive_component 	0
scalar barabasi_100nodes_network.node[27].core_layer 	interests[27] 	276274
scalar barabasi_100nodes_network.node[27].core_layer 	data[27] 	144274
scalar barabasi_100nodes_network.node[27].core_layer 	slots_sent[face$o[1]->client[27]] 	140833651
scalar barabasi_100nodes_network.node[27].core_layer 	slots_sent[face$o[2]->node[4]] 	0
scalar barabasi_100nodes_network.node[27].core_layer 	slots_sent[face$o[3]->node[99]] 	23351369
scalar barabasi_100nodes_network.node[27].content_store 	p_hit[27] 	0.47778654524132
scalar barabasi_100nodes_network.node[27].content_store 	hits[27] 	132000
scalar barabasi_100nodes_network.node[27].content_store 	misses[27] 	144274
scalar barabasi_100nodes_network.node[27].content_store 	decision_yes[27] 	144274
scalar barabasi_100nodes_network.node[27].content_store 	decision_no[27] 	0
scalar barabasi_100nodes_network.node[27].content_store 	decision_ratio[27] 	1
scalar barabasi_100nodes_network.node[27].content_store 	"representation_breakdown[27] 26429:3758:1815:1323:5263:" 	0
scalar barabasi_100nodes_network.node[27].proactive_component 	hdistance[27].proactive_component 	2.5342627323498
scalar barabasi_100nodes_network.node[27].proactive_component 	downloads[27].proactive_component 	479880
scalar barabasi_100nodes_network.node[27].proactive_component 	avg_time[27].proactive_component 	0
scalar barabasi_100nodes_network.node[28].core_layer 	interests[28] 	192611
scalar barabasi_100nodes_network.node[28].core_layer 	data[28] 	73601
scalar barabasi_100nodes_network.node[28].core_layer 	slots_sent[face$o[1]->client[28]] 	144213966
scalar barabasi_100nodes_network.node[28].core_layer 	slots_sent[face$o[2]->node[0]] 	0
scalar barabasi_100nodes_network.node[28].content_store 	p_hit[28] 	0.61787748363281
scalar barabasi_100nodes_network.node[28].content_store 	hits[28] 	119010
scalar barabasi_100nodes_network.node[28].content_store 	misses[28] 	73601
scalar barabasi_100nodes_network.node[28].content_store 	decision_yes[28] 	73601
scalar barabasi_100nodes_network.node[28].content_store 	decision_no[28] 	0
scalar barabasi_100nodes_network.node[28].content_store 	decision_ratio[28] 	1
scalar barabasi_100nodes_network.node[28].content_store 	"representation_breakdown[28] 22789:3050:1609:1321:5805:" 	0
scalar barabasi_100nodes_network.node[28].proactive_component 	hdistance[28].proactive_component 	3.0444238849697
scalar barabasi_100nodes_network.node[28].proactive_component 	downloads[28].proactive_component 	259410
scalar barabasi_100nodes_network.node[28].proactive_component 	avg_time[28].proactive_component 	0
scalar barabasi_100nodes_network.node[29].core_layer 	interests[29] 	192903
scalar barabasi_100nodes_network.node[29].core_layer 	data[29] 	73743
scalar barabasi_100nodes_network.node[29].core_layer 	slots_sent[face$o[1]->client[29]] 	143632413
scalar barabasi_100nodes_network.node[29].core_layer 	slots_sent[face$o[2]->node[2]] 	0
scalar barabasi_100nodes_network.node[29].content_store 	p_hit[29] 	0.61771978662851
scalar barabasi_100nodes_network.node[29].content_store 	hits[29] 	119160
scalar barabasi_100nodes_network.node[29].content_store 	misses[29] 	73743
scalar barabasi_100nodes_network.node[29].content_store 	decision_yes[29] 	73743
scalar barabasi_100nodes_network.node[29].content_store 	decision_no[29] 	0
scalar barabasi_100nodes_network.node[29].content_store 	decision_ratio[29] 	1
scalar barabasi_100nodes_network.node[29].content_store 	"representation_breakdown[29] 22978:2984:1586:1368:5779:" 	0
scalar barabasi_100nodes_network.node[29].proactive_component 	hdistance[29].proactive_component 	2.7631792467714
scalar barabasi_100nodes_network.node[29].proactive_component 	downloads[29].proactive_component 	266214
scalar barabasi_100nodes_network.node[29].proactive_component 	avg_time[29].proactive_component 	0
scalar barabasi_100nodes_network.node[30].core_layer 	interests[30] 	251377
scalar barabasi_100nodes_network.node[30].core_layer 	repo_load[30] 	58185
scalar barabasi_100nodes_network.node[30].core_layer 	data[30] 	86146
scalar barabasi_100nodes_network.node[30].core_layer 	slots_sent[face$o[1]->client[30]] 	118193842
scalar barabasi_100nodes_network.node[30].core_layer 	slots_sent[face$o[2]->node[4]] 	0
scalar barabasi_100nodes_network.node[30].core_layer 	slots_sent[face$o[3]->node[88]] 	14854227
scalar barabasi_100nodes_network.node[30].content_store 	p_hit[30] 	0.42583848164311
scalar barabasi_100nodes_network.node[30].content_store 	hits[30] 	107046
scalar barabasi_100nodes_network.node[30].content_store 	misses[30] 	144331
scalar barabasi_100nodes_network.node[30].content_store 	decision_yes[30] 	86146
scalar barabasi_100nodes_network.node[30].content_store 	decision_no[30] 	58185
scalar barabasi_100nodes_network.node[30].content_store 	decision_ratio[30] 	0.59686415253826
scalar barabasi_100nodes_network.node[30].content_store 	"representation_breakdown[30] 27231:4505:1990:1343:4955:" 	0
scalar barabasi_100nodes_network.node[30].proactive_component 	hdistance[30].proactive_component 	2.4490379718107
scalar barabasi_100nodes_network.node[30].proactive_component 	downloads[30].proactive_component 	378939
scalar barabasi_100nodes_network.node[30].proactive_component 	avg_time[30].proactive_component 	0
scalar barabasi_100nodes_network.node[31].core_layer 	interests[31] 	410231
scalar barabasi_100nodes_network.node[31].core_layer 	data[31] 	274462
scalar barabasi_100nodes_network.node[31].core_layer 	slots_sent[face$o[1]->client[31]] 	142165552
scalar barabasi_100nodes_network.node[31].core_layer 	slots_sent[face$o[2]->node[7]] 	0
scalar barabasi_100nodes_network.node[31].core_layer 	slots_sent[face$o[3]->node[65]] 	67488667
scalar barabasi_100nodes_network.node[31].content_store 	p_hit[31] 	0.3309574361762
scalar barabasi_100nodes_network.node[31].content_store 	hits[31] 	135769
scalar barabasi_100nodes_network.node[31].content_store 	misses[31] 	274462
scalar barabasi_100nodes_network.node[31].content_store 	decision_yes[31] 	274462
scalar barabasi_100nodes_network.node[31].content_store 	decision_no[31] 	0
scalar barabasi_100nodes_network.node[31].content_store 	decision_ratio[31] 	1
scalar barabasi_100nodes_network.node[31].content_store 	"representation_breakdown[31] 23887:3660:1807:1516:5366:" 	0
scalar barabasi_100nodes_network.node[31].proactive_component 	hdistance[31].proactive_component 	3.0790606637939
scalar barabasi_100nodes_network.node[31].proactive_component 	downloads[31].proactive_component 	499161
scalar barabasi_100nodes_network.node[31].proactive_component 	avg_time[31].proactive_component 	0
scalar barabasi_100nodes_network.node[32].core_layer 	interests[32] 	327267
scalar barabasi_100nodes_network.node[32].core_layer 	data[32] 	190402
scalar barabasi_100nodes_network.node[32].core_layer 	slots_sent[face$o[1]->client[32]] 	141560379
scalar barabasi_100nodes_network.node[32].core_layer 	slots_sent[face$o[2]->node[2]] 	0
scalar barabasi_100nodes_network.node[32].core_layer 	slots_sent[face$o[3]->node[43]] 	17750390
scalar barabasi_100nodes_network.node[32].core_layer 	slots_sent[face$o[4]->node[64]] 	24526309
scalar barabasi_100nodes_network.node[32].content_store 	p_hit[32] 	0.41820592971488
scalar barabasi_100nodes_network.node[32].content_store 	hits[32] 	136865
scalar barabasi_100nodes_network.node[32].content_store 	misses[32] 	190402
scalar barabasi_100nodes_network.node[32].content_store 	decision_yes[32] 	190402
scalar barabasi_100nodes_network.node[32].content_store 	decision_no[32] 	0
scalar barabasi_100nodes_network.node[32].content_store 	decision_ratio[32] 	1
scalar barabasi_100nodes_network.node[32].content_store 	"representation_breakdown[32] 23575:3603:1776:1473:5448:" 	0
scalar barabasi_100nodes_network.node[32].proactive_component 	hdistance[32].proactive_component 	2.8472879165907
scalar barabasi_100nodes_network.node[32].proactive_component 	downloads[32].proactive_component 	515434
scalar barabasi_100nodes_network.node[32].proactive_component 	avg_time[32].proactive_component 	0
scalar barabasi_100nodes_network.node[33].core_layer 	interests[33] 	192455
scalar barabasi_100nodes_network.node[33].core_layer 	data[33] 	73697
scalar barabasi_100nodes_network.node[33].core_layer 	slots_sent[face$o[1]->client[33]] 	143136112
scalar barabasi_100nodes_network.node[33].core_layer 	slots_sent[face$o[2]->node[2]] 	0
scalar barabasi_100nodes_network.node[33].content_store 	p_hit[33] 	0.61706892520329
scalar barabasi_100nodes_network.node[33].content_store 	hits[33] 	118758
scalar barabasi_100nodes_network.node[33].content_store 	misses[33] 	73697
scalar barabasi_100nodes_network.node[33].content_store 	decision_yes[33] 	73697
scalar barabasi_100nodes_network.node[33].content_store 	decision_no[33] 	0
scalar barabasi_100nodes_network.node[33].content_store 	decision_ratio[33] 	1
scalar barabasi_100nodes_network.node[33].content_store 	"representation_breakdown[33] 23148:3062:1577:1351:5765:" 	0
scalar barabasi_100nodes_network.node[33].proactive_component 	hdistance[33].proactive_component 	2.7621998217824
scalar barabasi_100nodes_network.node[33].proactive_component 	downloads[33].proactive_component 	265967
[...]
scalar barabasi_100nodes_network.client[8] 	avg_time[8].real 	0
scalar barabasi_100nodes_network.client[9] 	hdistance[9].real 	1.447322616408
scalar barabasi_100nodes_network.client[9] 	downloads[9].real 	180400
scalar barabasi_100nodes_network.client[9] 	avg_time[9].real 	0
scalar barabasi_100nodes_network.client[10] 	hdistance[10].real 	1.238441072841
scalar barabasi_100nodes_network.client[10] 	downloads[10].real 	180791
scalar barabasi_100nodes_network.client[10] 	avg_time[10].real 	0
scalar barabasi_100nodes_network.client[11] 	hdistance[11].real 	1.2272684386083
scalar barabasi_100nodes_network.client[11] 	downloads[11].real 	180179
scalar barabasi_100nodes_network.client[11] 	avg_time[11].real 	0
scalar barabasi_100nodes_network.client[12] 	hdistance[12].real 	1.2634874221557
scalar barabasi_100nodes_network.client[12] 	downloads[12].real 	179204
scalar barabasi_100nodes_network.client[12] 	avg_time[12].real 	0
scalar barabasi_100nodes_network.client[13] 	hdistance[13].real 	1.152786728594
scalar barabasi_100nodes_network.client[13] 	downloads[13].real 	179996
scalar barabasi_100nodes_network.client[13] 	avg_time[13].real 	0
scalar barabasi_100nodes_network.client[14] 	hdistance[14].real 	1.3096689507876
scalar barabasi_100nodes_network.client[14] 	downloads[14].real 	179792
scalar barabasi_100nodes_network.client[14] 	avg_time[14].real 	0
scalar barabasi_100nodes_network.client[15] 	hdistance[15].real 	1.2697369515665
scalar barabasi_100nodes_network.client[15] 	downloads[15].real 	180309
scalar barabasi_100nodes_network.client[15] 	avg_time[15].real 	0
scalar barabasi_100nodes_network.client[16] 	hdistance[16].real 	1.152191323693
scalar barabasi_100nodes_network.client[16] 	downloads[16].real 	179800
scalar barabasi_100nodes_network.client[16] 	avg_time[16].real 	0
scalar barabasi_100nodes_network.client[17] 	hdistance[17].real 	1.3222976686858
scalar barabasi_100nodes_network.client[17] 	downloads[17].real 	180113
scalar barabasi_100nodes_network.client[17] 	avg_time[17].real 	0
scalar barabasi_100nodes_network.client[18] 	hdistance[18].real 	1.1430616752311
scalar barabasi_100nodes_network.client[18] 	downloads[18].real 	180202
scalar barabasi_100nodes_network.client[18] 	avg_time[18].real 	0
scalar barabasi_100nodes_network.client[19] 	hdistance[19].real 	1.2814736049268
scalar barabasi_100nodes_network.client[19] 	downloads[19].real 	180564
scalar barabasi_100nodes_network.client[19] 	avg_time[19].real 	0
scalar barabasi_100nodes_network.client[20] 	hdistance[20].real 	1.1675039742106
scalar barabasi_100nodes_network.client[20] 	downloads[20].real 	180539
scalar barabasi_100nodes_network.client[20] 	avg_time[20].real 	0
scalar barabasi_100nodes_network.client[21] 	hdistance[21].real 	1.2680582653423
scalar barabasi_100nodes_network.client[21] 	downloads[21].real 	180416
scalar barabasi_100nodes_network.client[21] 	avg_time[21].real 	0
scalar barabasi_100nodes_network.client[22] 	hdistance[22].real 	1.2336655469289
scalar barabasi_100nodes_network.client[22] 	downloads[22].real 	179804
scalar barabasi_100nodes_network.client[22] 	avg_time[22].real 	0
scalar barabasi_100nodes_network.client[23] 	hdistance[23].real 	1.4033170688283
scalar barabasi_100nodes_network.client[23] 	downloads[23].real 	179737
scalar barabasi_100nodes_network.client[23] 	avg_time[23].real 	0
scalar barabasi_100nodes_network.client[24] 	hdistance[24].real 	1.4488785529142
scalar barabasi_100nodes_network.client[24] 	downloads[24].real 	180169
scalar barabasi_100nodes_network.client[24] 	avg_time[24].real 	0
scalar barabasi_100nodes_network.client[25] 	hdistance[25].real 	1.1176983628778
scalar barabasi_100nodes_network.client[25] 	downloads[25].real 	180011
scalar barabasi_100nodes_network.client[25] 	avg_time[25].real 	0
scalar barabasi_100nodes_network.client[26] 	hdistance[26].real 	1.1397435754873
scalar barabasi_100nodes_network.client[26] 	downloads[26].real 	179858
scalar barabasi_100nodes_network.client[26] 	avg_time[26].real 	0
scalar barabasi_100nodes_network.client[27] 	hdistance[27].real 	1.1571714889989
scalar barabasi_100nodes_network.client[27] 	downloads[27].real 	180618
scalar barabasi_100nodes_network.client[27] 	avg_time[27].real 	0
scalar barabasi_100nodes_network.client[28] 	hdistance[28].real 	1.2239533915938
scalar barabasi_100nodes_network.client[28] 	downloads[28].real 	180225
scalar barabasi_100nodes_network.client[28] 	avg_time[28].real 	0
scalar barabasi_100nodes_network.client[29] 	hdistance[29].real 	1.0900135567606
scalar barabasi_100nodes_network.client[29] 	downloads[29].real 	179984
scalar barabasi_100nodes_network.client[29] 	avg_time[29].real 	0
scalar barabasi_100nodes_network.client[30] 	hdistance[30].real 	0.99449074177232
scalar barabasi_100nodes_network.client[30] 	downloads[30].real 	179516
scalar barabasi_100nodes_network.client[30] 	avg_time[30].real 	0
scalar barabasi_100nodes_network.client[31] 	hdistance[31].real 	1.2792359320829
scalar barabasi_100nodes_network.client[31] 	downloads[31].real 	179984
scalar barabasi_100nodes_network.client[31] 	avg_time[31].real 	0
scalar barabasi_100nodes_network.client[32] 	hdistance[32].real 	1.1270210925544
scalar barabasi_100nodes_network.client[32] 	downloads[32].real 	180348
scalar barabasi_100nodes_network.client[32] 	avg_time[32].real 	0
scalar barabasi_100nodes_network.client[33] 	hdistance[33].real 	1.0907527480172
scalar barabasi_100nodes_network.client[33] 	downloads[33].real 	179675
scalar barabasi_100nodes_network.client[33] 	avg_time[33].real 	0
scalar barabasi_100nodes_network.client[34] 	hdistance[34].real 	1.0928503972002
scalar barabasi_100nodes_network.client[34] 	downloads[34].real 	180010
scalar barabasi_100nodes_network.client[34] 	avg_time[34].real 	0
scalar barabasi_100nodes_network.client[35] 	hdistance[35].real 	1.490750610704
scalar barabasi_100nodes_network.client[35] 	downloads[35].real 	180120
scalar barabasi_100nodes_network.client[35] 	avg_time[35].real 	0
scalar barabasi_100nodes_network.client[36] 	hdistance[36].real 	1.1105381601978
scalar barabasi_100nodes_network.client[36] 	downloads[36].real 	179965
scalar barabasi_100nodes_network.client[36] 	avg_time[36].real 	0
scalar barabasi_100nodes_network.client[37] 	hdistance[37].real 	1.2273420370185
scalar barabasi_100nodes_network.client[37] 	downloads[37].real 	179694
scalar barabasi_100nodes_network.client[37] 	avg_time[37].real 	0
scalar barabasi_100nodes_network.client[38] 	hdistance[38].real 	1.3504328559609
scalar barabasi_100nodes_network.client[38] 	downloads[38].real 	180083
scalar barabasi_100nodes_network.client[38] 	avg_time[38].real 	0
scalar barabasi_100nodes_network.client[39] 	hdistance[39].real 	1.3463941732555
scalar barabasi_100nodes_network.client[39] 	downloads[39].real 	179723
scalar barabasi_100nodes_network.client[39] 	avg_time[39].real 	0
scalar barabasi_100nodes_network.client[40] 	hdistance[40].real 	1.4444661560106
scalar barabasi_100nodes_network.client[40] 	downloads[40].real 	179116
scalar barabasi_100nodes_network.client[40] 	avg_time[40].real 	0
scalar barabasi_100nodes_network.client[41] 	hdistance[41].real 	1.1870875562202
scalar barabasi_100nodes_network.client[41] 	downloads[41].real 	179873
scalar barabasi_100nodes_network.client[41] 	avg_time[41].real 	0
scalar barabasi_100nodes_network.client[42] 	hdistance[42].real 	1.2408521746825
scalar barabasi_100nodes_network.client[42] 	downloads[42].real 	180808
scalar barabasi_100nodes_network.client[42] 	avg_time[42].real 	0
scalar barabasi_100nodes_network.client[43] 	hdistance[43].real 	1.2667044608219
scalar barabasi_100nodes_network.client[43] 	downloads[43].real 	179922
scalar barabasi_100nodes_network.client[43] 	avg_time[43].real 	0
scalar barabasi_100nodes_network.client[44] 	hdistance[44].real 	1.2217671120201
scalar barabasi_100nodes_network.client[44] 	downloads[44].real 	179932
scalar barabasi_100nodes_network.client[44] 	avg_time[44].real 	0
scalar barabasi_100nodes_network.client[45] 	hdistance[45].real 	1.1110145847604
scalar barabasi_100nodes_network.client[45] 	downloads[45].real 	179571
scalar barabasi_100nodes_network.client[45] 	avg_time[45].real 	0
scalar barabasi_100nodes_network.client[46] 	hdistance[46].real 	1.6797609974019
scalar barabasi_100nodes_network.client[46] 	downloads[46].real 	179747
scalar barabasi_100nodes_network.client[46] 	avg_time[46].real 	0
scalar barabasi_100nodes_network.client[47] 	hdistance[47].real 	1.4027853571071
scalar barabasi_100nodes_network.client[47] 	downloads[47].real 	179582
scalar barabasi_100nodes_network.client[47] 	avg_time[47].real 	0
scalar barabasi_100nodes_network.client[48] 	hdistance[48].real 	1.1816810212842
scalar barabasi_100nodes_network.client[48] 	downloads[48].real 	179617
scalar barabasi_100nodes_network.client[48] 	avg_time[48].real 	0
scalar barabasi_100nodes_network.client[49] 	hdistance[49].real 	1.0499919170072
scalar barabasi_100nodes_network.client[49] 	downloads[49].real 	179389
scalar barabasi_100nodes_network.client[49] 	avg_time[49].real 	0
scalar barabasi_100nodes_network.client[50] 	hdistance[50].real 	1.6911922574186
scalar barabasi_100nodes_network.client[50] 	downloads[50].real 	179785
scalar barabasi_100nodes_network.client[50] 	avg_time[50].real 	0
scalar barabasi_100nodes_network.client[51] 	hdistance[51].real 	1.4120401968781
scalar barabasi_100nodes_network.client[51] 	downloads[51].real 	180213
scalar barabasi_100nodes_network.client[51] 	avg_time[51].real 	0
scalar barabasi_100nodes_network.client[52] 	hdistance[52].real 	1.3388828708719
scalar barabasi_100nodes_network.client[52] 	downloads[52].real 	180015
scalar barabasi_100nodes_network.client[52] 	avg_time[52].real 	0
scalar barabasi_100nodes_network.client[53] 	hdistance[53].real 	1.328231292517
scalar barabasi_100nodes_network.client[53] 	downloads[53].real 	179928
scalar barabasi_100nodes_network.client[53] 	avg_time[53].real 	0
scalar barabasi_100nodes_network.client[54] 	hdistance[54].real 	1.2686297644172
scalar barabasi_100nodes_network.client[54] 	downloads[54].real 	180531
scalar barabasi_100nodes_network.client[54] 	avg_time[54].real 	0
scalar barabasi_100nodes_network.client[55] 	hdistance[55].real 	1.2462686567164
scalar barabasi_100nodes_network.client[55] 	downloads[55].real 	179828
scalar barabasi_100nodes_network.client[55] 	avg_time[55].real 	0
scalar barabasi_100nodes_network.client[56] 	hdistance[56].real 	1.4443381322178
scalar barabasi_100nodes_network.client[56] 	downloads[56].real 	179764
scalar barabasi_100nodes_network.client[56] 	avg_time[56].real 	0
scalar barabasi_100nodes_network.client[57] 	hdistance[57].real 	1.4508579996668
scalar barabasi_100nodes_network.client[57] 	downloads[57].real 	180070
scalar barabasi_100nodes_network.client[57] 	avg_time[57].real 	0
scalar barabasi_100nodes_network.client[58] 	hdistance[58].real 	1.2430387779868
scalar barabasi_100nodes_network.client[58] 	downloads[58].real 	179638
scalar barabasi_100nodes_network.client[58] 	avg_time[58].real 	0
scalar barabasi_100nodes_network.client[59] 	hdistance[59].real 	1.0918566775244
scalar barabasi_100nodes_network.client[59] 	downloads[59].real 	179595
scalar barabasi_100nodes_network.client[59] 	avg_time[59].real 	0
scalar barabasi_100nodes_network.client[60] 	hdistance[60].real 	1.3359269639537
scalar barabasi_100nodes_network.client[60] 	downloads[60].real 	180185
scalar barabasi_100nodes_network.client[60] 	avg_time[60].real 	0
scalar barabasi_100nodes_network.client[61] 	hdistance[61].real 	1.3213667628134
scalar barabasi_100nodes_network.client[61] 	downloads[61].real 	180280
scalar barabasi_100nodes_network.client[61] 	avg_time[61].real 	0
scalar barabasi_100nodes_network.client[62] 	hdistance[62].real 	1.1269678226113
scalar barabasi_100nodes_network.client[62] 	downloads[62].real 	179132
scalar barabasi_100nodes_network.client[62] 	avg_time[62].real 	0
scalar barabasi_100nodes_network.client[63] 	hdistance[63].real 	1.4433387354587
scalar barabasi_100nodes_network.client[63] 	downloads[63].real 	180176
scalar barabasi_100nodes_network.client[63] 	avg_time[63].real 	0
scalar barabasi_100nodes_network.client[64] 	hdistance[64].real 	1.3222039794072
scalar barabasi_100nodes_network.client[64] 	downloads[64].real 	179675
scalar barabasi_100nodes_network.client[64] 	avg_time[64].real 	0
scalar barabasi_100nodes_network.client[65] 	hdistance[65].real 	1.5336986998335
scalar barabasi_100nodes_network.client[65] 	downloads[65].real 	180823
scalar barabasi_100nodes_network.client[65] 	avg_time[65].real 	0
scalar barabasi_100nodes_network.client[66] 	hdistance[66].real 	1.3094450549144
scalar barabasi_100nodes_network.client[66] 	downloads[66].real 	179279
scalar barabasi_100nodes_network.client[66] 	avg_time[66].real 	0
scalar barabasi_100nodes_network.client[67] 	hdistance[67].real 	1.3259400306655
scalar barabasi_100nodes_network.client[67] 	downloads[67].real 	180659
scalar barabasi_100nodes_network.client[67] 	avg_time[67].real 	0
scalar barabasi_100nodes_network.client[68] 	hdistance[68].real 	1.1675350301525
scalar barabasi_100nodes_network.client[68] 	downloads[68].real 	180416
scalar barabasi_100nodes_network.client[68] 	avg_time[68].real 	0
scalar barabasi_100nodes_network.client[69] 	hdistance[69].real 	1.2450170447605
scalar barabasi_100nodes_network.client[69] 	downloads[69].real 	180114
scalar barabasi_100nodes_network.client[69] 	avg_time[69].real 	0
scalar barabasi_100nodes_network.client[70] 	hdistance[70].real 	1.4405274354175
scalar barabasi_100nodes_network.client[70] 	downloads[70].real 	180041
scalar barabasi_100nodes_network.client[70] 	avg_time[70].real 	0
scalar barabasi_100nodes_network.client[71] 	hdistance[71].real 	1.4635669635448
scalar barabasi_100nodes_network.client[71] 	downloads[71].real 	180770
scalar barabasi_100nodes_network.client[71] 	avg_time[71].real 	0
scalar barabasi_100nodes_network.client[72] 	hdistance[72].real 	1.3292599683676
scalar barabasi_100nodes_network.client[72] 	downloads[72].real 	180195
scalar barabasi_100nodes_network.client[72] 	avg_time[72].real 	0
scalar barabasi_100nodes_network.client[73] 	hdistance[73].real 	1.2442226803207
scalar barabasi_100nodes_network.client[73] 	downloads[73].real 	179971
scalar barabasi_100nodes_network.client[73] 	avg_time[73].real 	0
scalar barabasi_100nodes_network.client[74] 	hdistance[74].real 	1.173602181528
scalar barabasi_100nodes_network.client[74] 	downloads[74].real 	180424
scalar barabasi_100nodes_network.client[74] 	avg_time[74].real 	0
scalar barabasi_100nodes_network.client[75] 	hdistance[75].real 	1.3465662255703
scalar barabasi_100nodes_network.client[75] 	downloads[75].real 	180006
scalar barabasi_100nodes_network.client[75] 	avg_time[75].real 	0
scalar barabasi_100nodes_network.client[76] 	hdistance[76].real 	1.4611399251452
scalar barabasi_100nodes_network.client[76] 	downloads[76].real 	180082
scalar barabasi_100nodes_network.client[76] 	avg_time[76].real 	0
scalar barabasi_100nodes_network.client[77] 	hdistance[77].real 	1.3700802244288
scalar barabasi_100nodes_network.client[77] 	downloads[77].real 	180369
scalar barabasi_100nodes_network.client[77] 	avg_time[77].real 	0
scalar barabasi_100nodes_network.client[78] 	hdistance[78].real 	1.3868862872713
scalar barabasi_100nodes_network.client[78] 	downloads[78].real 	179461
scalar barabasi_100nodes_network.client[78] 	avg_time[78].real 	0
scalar barabasi_100nodes_network.client[79] 	hdistance[79].real 	1.0921916119791
scalar barabasi_100nodes_network.client[79] 	downloads[79].real 	180114
scalar barabasi_100nodes_network.client[79] 	avg_time[79].real 	0
scalar barabasi_100nodes_network.client[80] 	hdistance[80].real 	1.4315537265255
scalar barabasi_100nodes_network.client[80] 	downloads[80].real 	180302
scalar barabasi_100nodes_network.client[80] 	avg_time[80].real 	0
scalar barabasi_100nodes_network.client[81] 	hdistance[81].real 	1.5704835538374
scalar barabasi_100nodes_network.client[81] 	downloads[81].real 	180042
scalar barabasi_100nodes_network.client[81] 	avg_time[81].real 	0
scalar barabasi_100nodes_network.client[82] 	hdistance[82].real 	1.6208461141649
scalar barabasi_100nodes_network.client[82] 	downloads[82].real 	180283
scalar barabasi_100nodes_network.client[82] 	avg_time[82].real 	0
scalar barabasi_100nodes_network.client[83] 	hdistance[83].real 	1.403131822045
scalar barabasi_100nodes_network.client[83] 	downloads[83].real 	180023
scalar barabasi_100nodes_network.client[83] 	avg_time[83].real 	0
scalar barabasi_100nodes_network.client[84] 	hdistance[84].real 	1.3836170899818
scalar barabasi_100nodes_network.client[84] 	downloads[84].real 	179614
scalar barabasi_100nodes_network.client[84] 	avg_time[84].real 	0
scalar barabasi_100nodes_network.client[85] 	hdistance[85].real 	1.1217295084235
scalar barabasi_100nodes_network.client[85] 	downloads[85].real 	180745
scalar barabasi_100nodes_network.client[85] 	avg_time[85].real 	0
scalar barabasi_100nodes_network.client[86] 	hdistance[86].real 	1.4076864857645
scalar barabasi_100nodes_network.client[86] 	downloads[86].real 	179692
scalar barabasi_100nodes_network.client[86] 	avg_time[86].real 	0
scalar barabasi_100nodes_network.client[87] 	hdistance[87].real 	1.5661091408053
scalar barabasi_100nodes_network.client[87] 	downloads[87].real 	180739
scalar barabasi_100nodes_network.client[87] 	avg_time[87].real 	0
scalar barabasi_100nodes_network.client[88] 	hdistance[88].real 	0.9293336297449
scalar barabasi_100nodes_network.client[88] 	downloads[88].real 	179930
scalar barabasi_100nodes_network.client[88] 	avg_time[88].real 	0
scalar barabasi_100nodes_network.client[89] 	hdistance[89].real 	1.4310208842479
scalar barabasi_100nodes_network.client[89] 	downloads[89].real 	180040
scalar barabasi_100nodes_network.client[89] 	avg_time[89].real 	0
scalar barabasi_100nodes_network.client[90] 	hdistance[90].real 	1.0500871489833
scalar barabasi_100nodes_network.client[90] 	downloads[90].real 	180725
scalar barabasi_100nodes_network.client[90] 	avg_time[90].real 	0
scalar barabasi_100nodes_network.client[91] 	hdistance[91].real 	1.1514660880209
scalar barabasi_100nodes_network.client[91] 	downloads[91].real 	179730
scalar barabasi_100nodes_network.client[91] 	avg_time[91].real 	0
scalar barabasi_100nodes_network.client[92] 	hdistance[92].real 	1.589075522788
scalar barabasi_100nodes_network.client[92] 	downloads[92].real 	179853
scalar barabasi_100nodes_network.client[92] 	avg_time[92].real 	0
scalar barabasi_100nodes_network.client[93] 	hdistance[93].real 	1.2169476682961
scalar barabasi_100nodes_network.client[93] 	downloads[93].real 	180426
scalar barabasi_100nodes_network.client[93] 	avg_time[93].real 	0
scalar barabasi_100nodes_network.client[94] 	hdistance[94].real 	1.4593067694659
scalar barabasi_100nodes_network.client[94] 	downloads[94].real 	180546
scalar barabasi_100nodes_network.client[94] 	avg_time[94].real 	0
scalar barabasi_100nodes_network.client[95] 	hdistance[95].real 	1.7120294726532
scalar barabasi_100nodes_network.client[95] 	downloads[95].real 	179692
scalar barabasi_100nodes_network.client[95] 	avg_time[95].real 	0
scalar barabasi_100nodes_network.client[96] 	hdistance[96].real 	1.5900993738999
scalar barabasi_100nodes_network.client[96] 	downloads[96].real 	179524
scalar barabasi_100nodes_network.client[96] 	avg_time[96].real 	0
scalar barabasi_100nodes_network.client[97] 	hdistance[97].real 	1.4726222543112
scalar barabasi_100nodes_network.client[97] 	downloads[97].real 	180055
scalar barabasi_100nodes_network.client[97] 	avg_time[97].real 	0
scalar barabasi_100nodes_network.client[98] 	hdistance[98].real 	1.7102686905503
scalar barabasi_100nodes_network.client[98] 	downloads[98].real 	179984
scalar barabasi_100nodes_network.client[98] 	avg_time[98].real 	0
scalar barabasi_100nodes_network.client[99] 	hdistance[99].real 	1.3860383944154
scalar barabasi_100nodes_network.client[99] 	downloads[99].real 	180495
scalar barabasi_100nodes_network.client[99] 	avg_time[99].real 	0
