version 2
run General-10-20141007-11:03:49-19315
attr D costaware0.5
attr F nrr
attr R lru
attr a 1
attr configname General
attr csize 1e3
attr ctlg 1e5
attr datetime 20141007-11:03:49
attr experiment General
attr inifile omnetpp.ini
attr iterationvars "$net=abilene_cost, $rep=5, $priceratiovalue=10, $weights=0.333_0.333_0.334, $lambda=100, $a=1, $ctlg=1e5, $F=nrr, $ttl=10, $D=costaware0.5, $xi=1, $R=lru, $csize=1e3, $pricebits=0, $window=60, $variance=0.05, $mytime=1800"
attr iterationvars2 "$net=abilene_cost, $rep=5, $priceratiovalue=10, $weights=0.333_0.333_0.334, $lambda=100, $a=1, $ctlg=1e5, $F=nrr, $ttl=10, $D=costaware0.5, $xi=1, $R=lru, $csize=1e3, $pricebits=0, $window=60, $variance=0.05, $mytime=1800, $repetition=0"
attr lambda 100
attr measurement "$net=abilene_cost, $rep=5, $priceratiovalue=10, $weights=0.333_0.333_0.334, $lambda=100, $a=1, $ctlg=1e5, $F=nrr, $ttl=10, $D=costaware0.5, $xi=1, $R=lru, $csize=1e3, $pricebits=0, $window=60, $variance=0.05, $mytime=1800"
attr mytime 1800
attr net abilene_cost
attr network networks.${net=abilene_cost,geant_cost}_network
attr pricebits 0
attr priceratiovalue 10
attr processid 19315
attr rep 5
attr repetition 0
attr replication #0
attr resultdir results
attr runnumber 10
attr seedset 5
attr ttl 10
attr variance 0.05
attr weights 0.333_0.333_0.334
attr window 60
attr xi 1

scalar . 	a 	1
scalar . 	csize 	1e3
scalar . 	ctlg 	1e5
scalar . 	lambda 	100
scalar . 	mytime 	1800
scalar . 	pricebits 	0
scalar . 	priceratiovalue 	10
scalar . 	rep 	5
scalar . 	ttl 	10
scalar . 	variance 	0.05
scalar . 	window 	60
scalar . 	xi 	1
scalar abilene_cost_network.content_distribution 	repo-0 	9
scalar abilene_cost_network.content_distribution 	repo-1 	5
scalar abilene_cost_network.content_distribution 	repo-2 	1
scalar abilene_cost_network.content_distribution 	client-0 	4
scalar abilene_cost_network.content_distribution 	client-1 	9
scalar abilene_cost_network.content_distribution 	client-2 	0
scalar abilene_cost_network.content_distribution 	repo-0_card 	33098
scalar abilene_cost_network.content_distribution 	repo-0_price 	1
scalar abilene_cost_network.content_distribution 	repo-1_card 	33495
scalar abilene_cost_network.content_distribution 	repo-1_price 	10
scalar abilene_cost_network.content_distribution 	repo-2_card 	33407
scalar abilene_cost_network.content_distribution 	repo-2_price 	0
scalar abilene_cost_network.statistics 	repo_popularity[0] 	0.31037770261398
scalar abilene_cost_network.statistics 	repo_popularity[1] 	0.29913869324176
scalar abilene_cost_network.statistics 	repo_popularity[2] 	0.39048360414427
scalar abilene_cost_network.statistics 	stabilization_time 	94.9
scalar abilene_cost_network.statistics 	p_hit 	0.075053205878621
scalar abilene_cost_network.statistics 	interests 	151897.09090909
scalar abilene_cost_network.statistics 	data 	102801.36363636
scalar abilene_cost_network.statistics 	hdistance 	2.8829968726924
scalar abilene_cost_network.statistics 	avg_time 	0.013677589038
scalar abilene_cost_network.statistics 	downloads 	533941
scalar abilene_cost_network.statistics 	total_cost 	1076247
scalar abilene_cost_network.statistics 	total_replicas 	100000
scalar abilene_cost_network.statistics 	inner_hit 	0.2348948666613
scalar abilene_cost_network.node[0].core_layer 	interests[0] 	187678
scalar abilene_cost_network.node[0].core_layer 	data[0] 	167071
scalar abilene_cost_network.node[0].core_layer 	repo_int[0] 	408521
scalar abilene_cost_network.node[0].content_store 	p_hit[0] 	0.10070972623323
scalar abilene_cost_network.node[0].content_store 	hits[0] 	18901
scalar abilene_cost_network.node[0].content_store 	misses[0] 	168777
scalar abilene_cost_network.node[0].content_store 	decision_yes[0] 	36063
scalar abilene_cost_network.node[0].content_store 	decision_no[0] 	131008
scalar abilene_cost_network.node[0].content_store 	decision_ratio[0] 	0.21585433737752
scalar abilene_cost_network.node[0].content_store 	correction_factor[0] 	0.13612850530901
scalar abilene_cost_network.node[0].content_store 	kappa[0] 	1
scalar abilene_cost_network.node[1].core_layer 	interests[1] 	264449
scalar abilene_cost_network.node[1].core_layer 	repo_load[1] 	206786
scalar abilene_cost_network.node[1].core_layer 	data[1] 	49292
scalar abilene_cost_network.node[1].content_store 	p_hit[1] 	0.03165449670825
scalar abilene_cost_network.node[1].content_store 	hits[1] 	8371
scalar abilene_cost_network.node[1].content_store 	misses[1] 	256078
scalar abilene_cost_network.node[1].content_store 	decision_yes[1] 	31733
scalar abilene_cost_network.node[1].content_store 	decision_no[1] 	224345
scalar abilene_cost_network.node[1].content_store 	decision_ratio[1] 	0.12391927459602
scalar abilene_cost_network.node[1].content_store 	correction_factor[1] 	0.13612850530901
scalar abilene_cost_network.node[1].content_store 	kappa[1] 	1
scalar abilene_cost_network.node[2].core_layer 	interests[2] 	165916
scalar abilene_cost_network.node[2].core_layer 	data[2] 	163574
scalar abilene_cost_network.node[2].content_store 	p_hit[2] 	0.014079413679211
scalar abilene_cost_network.node[2].content_store 	hits[2] 	2336
scalar abilene_cost_network.node[2].content_store 	misses[2] 	163580
scalar abilene_cost_network.node[2].content_store 	decision_yes[2] 	36126
scalar abilene_cost_network.node[2].content_store 	decision_no[2] 	127448
scalar abilene_cost_network.node[2].content_store 	decision_ratio[2] 	0.22085416997811
scalar abilene_cost_network.node[2].content_store 	correction_factor[2] 	0.13612850530901
scalar abilene_cost_network.node[2].content_store 	kappa[2] 	1
scalar abilene_cost_network.node[3].core_layer 	interests[3] 	168060
scalar abilene_cost_network.node[3].core_layer 	data[3] 	165052
scalar abilene_cost_network.node[3].content_store 	p_hit[3] 	0.017862668094728
scalar abilene_cost_network.node[3].content_store 	hits[3] 	3002
scalar abilene_cost_network.node[3].content_store 	misses[3] 	165058
scalar abilene_cost_network.node[3].content_store 	decision_yes[3] 	35974
scalar abilene_cost_network.node[3].content_store 	decision_no[3] 	129078
scalar abilene_cost_network.node[3].content_store 	decision_ratio[3] 	0.21795555340135
scalar abilene_cost_network.node[3].content_store 	correction_factor[3] 	0.13612850530901
scalar abilene_cost_network.node[3].content_store 	kappa[3] 	1
scalar abilene_cost_network.node[4].core_layer 	interests[4] 	215406
scalar abilene_cost_network.node[4].core_layer 	data[4] 	195613
scalar abilene_cost_network.node[4].content_store 	p_hit[4] 	0.081520477609723
scalar abilene_cost_network.node[4].content_store 	hits[4] 	17560
scalar abilene_cost_network.node[4].content_store 	misses[4] 	197846
scalar abilene_cost_network.node[4].content_store 	decision_yes[4] 	70176
scalar abilene_cost_network.node[4].content_store 	decision_no[4] 	125437
scalar abilene_cost_network.node[4].content_store 	decision_ratio[4] 	0.35874916288795
scalar abilene_cost_network.node[4].content_store 	correction_factor[4] 	0.13612850530901
scalar abilene_cost_network.node[4].content_store 	kappa[4] 	1
scalar abilene_cost_network.node[5].core_layer 	interests[5] 	98449
scalar abilene_cost_network.node[5].core_layer 	repo_load[5] 	97168
scalar abilene_cost_network.node[5].core_layer 	data[5] 	0
scalar abilene_cost_network.node[5].content_store 	p_hit[5] 	0.01301181322309
scalar abilene_cost_network.node[5].content_store 	hits[5] 	1281
scalar abilene_cost_network.node[5].content_store 	misses[5] 	97168
scalar abilene_cost_network.node[5].content_store 	decision_yes[5] 	97168
scalar abilene_cost_network.node[5].content_store 	decision_no[5] 	0
scalar abilene_cost_network.node[5].content_store 	decision_ratio[5] 	1
scalar abilene_cost_network.node[5].content_store 	correction_factor[5] 	0.13612850530901
scalar abilene_cost_network.node[5].content_store 	kappa[5] 	1
scalar abilene_cost_network.node[6].core_layer 	interests[6] 	32032
scalar abilene_cost_network.node[6].core_layer 	data[6] 	31732
scalar abilene_cost_network.node[6].content_store 	p_hit[6] 	0.0093344155844156
scalar abilene_cost_network.node[6].content_store 	hits[6] 	299
scalar abilene_cost_network.node[6].content_store 	misses[6] 	31733
scalar abilene_cost_network.node[6].content_store 	decision_yes[6] 	31285
scalar abilene_cost_network.node[6].content_store 	decision_no[6] 	447
scalar abilene_cost_network.node[6].content_store 	decision_ratio[6] 	0.98591327366696
scalar abilene_cost_network.node[6].content_store 	correction_factor[6] 	0.13612850530901
scalar abilene_cost_network.node[6].content_store 	kappa[6] 	1
scalar abilene_cost_network.node[7].core_layer 	interests[7] 	39861
scalar abilene_cost_network.node[7].core_layer 	data[7] 	32031
scalar abilene_cost_network.node[7].content_store 	p_hit[7] 	0.19640751611851
scalar abilene_cost_network.node[7].content_store 	hits[7] 	7829
scalar abilene_cost_network.node[7].content_store 	misses[7] 	32032
scalar abilene_cost_network.node[7].content_store 	decision_yes[7] 	31285
scalar abilene_cost_network.node[7].content_store 	decision_no[7] 	746
scalar abilene_cost_network.node[7].content_store 	decision_ratio[7] 	0.97671006212731
scalar abilene_cost_network.node[7].content_store 	correction_factor[7] 	0.13612850530901
scalar abilene_cost_network.node[7].content_store 	kappa[7] 	1
scalar abilene_cost_network.node[8].core_layer 	interests[8] 	83113
scalar abilene_cost_network.node[8].core_layer 	data[8] 	80877
scalar abilene_cost_network.node[8].content_store 	p_hit[8] 	0.026903131880693
scalar abilene_cost_network.node[8].content_store 	hits[8] 	2236
scalar abilene_cost_network.node[8].content_store 	misses[8] 	80877
scalar abilene_cost_network.node[8].content_store 	decision_yes[8] 	35528
scalar abilene_cost_network.node[8].content_store 	decision_no[8] 	45349
scalar abilene_cost_network.node[8].content_store 	decision_ratio[8] 	0.43928434536395
scalar abilene_cost_network.node[8].content_store 	correction_factor[8] 	0.13612850530901
scalar abilene_cost_network.node[8].content_store 	kappa[8] 	1
scalar abilene_cost_network.node[9].core_layer 	interests[9] 	267828
scalar abilene_cost_network.node[9].core_layer 	repo_load[9] 	104567
scalar abilene_cost_network.node[9].core_layer 	data[9] 	119382
scalar abilene_cost_network.node[9].content_store 	p_hit[9] 	0.15571187478531
scalar abilene_cost_network.node[9].content_store 	hits[9] 	41704
scalar abilene_cost_network.node[9].content_store 	misses[9] 	226124
scalar abilene_cost_network.node[9].content_store 	decision_yes[9] 	45747
scalar abilene_cost_network.node[9].content_store 	decision_no[9] 	178202
scalar abilene_cost_network.node[9].content_store 	decision_ratio[9] 	0.2042741874266
scalar abilene_cost_network.node[9].content_store 	correction_factor[9] 	0.13612850530901
scalar abilene_cost_network.node[9].content_store 	kappa[9] 	1
scalar abilene_cost_network.node[10].core_layer 	interests[10] 	148076
scalar abilene_cost_network.node[10].core_layer 	data[10] 	126191
scalar abilene_cost_network.node[10].content_store 	p_hit[10] 	0.14779572651881
scalar abilene_cost_network.node[10].content_store 	hits[10] 	21885
scalar abilene_cost_network.node[10].content_store 	misses[10] 	126191
scalar abilene_cost_network.node[10].content_store 	decision_yes[10] 	4291
scalar abilene_cost_network.node[10].content_store 	decision_no[10] 	121900
scalar abilene_cost_network.node[10].content_store 	decision_ratio[10] 	0.034004009794676
scalar abilene_cost_network.node[10].content_store 	correction_factor[10] 	0.13612850530901
scalar abilene_cost_network.node[10].content_store 	kappa[10] 	1
scalar abilene_cost_network.client[0] 	hdistance[0] 	2.7351526312852
scalar abilene_cost_network.client[0] 	downloads[0] 	179190
scalar abilene_cost_network.client[0] 	avg_time[0] 	0.014022330338
scalar abilene_cost_network.client[4] 	hdistance[4] 	3.3927829771908
scalar abilene_cost_network.client[4] 	downloads[4] 	177691
scalar abilene_cost_network.client[4] 	avg_time[4] 	0.014754908958
scalar abilene_cost_network.client[9] 	hdistance[9] 	2.5210550096013
scalar abilene_cost_network.client[9] 	downloads[9] 	177060
scalar abilene_cost_network.client[9] 	avg_time[9] 	0.012255527818
