version 2
run General-1-20150902-20:25:23-25219
attr C 1e3
attr D fix1
attr F spr
attr R lru_repr
attr a 1
attr brates 0.3_0.7_1.5_2.5_3.5
attr configname General
attr ctlg 1e5
attr datetime 20150902-20:25:23
attr experiment General
attr inifile omnetpp.ini
attr iterationvars "$net=abilene_nodelay, $rep=0, $lambda=100, $a=1, $ctlg=1e5, $brates=0.3_0.7_1.5_2.5_3.5, $F=spr, $ttl=1000, $D=fix1, $R=lru_repr, $proactiveprob=0.01, $C=1e3, $window=60, $variance=0.05, $mytime=180000"
attr iterationvars2 "$net=abilene_nodelay, $rep=0, $lambda=100, $a=1, $ctlg=1e5, $brates=0.3_0.7_1.5_2.5_3.5, $F=spr, $ttl=1000, $D=fix1, $R=lru_repr, $proactiveprob=0.01, $C=1e3, $window=60, $variance=0.05, $mytime=180000, $repetition=0"
attr lambda 100
attr measurement "$net=abilene_nodelay, $rep=0, $lambda=100, $a=1, $ctlg=1e5, $brates=0.3_0.7_1.5_2.5_3.5, $F=spr, $ttl=1000, $D=fix1, $R=lru_repr, $proactiveprob=0.01, $C=1e3, $window=60, $variance=0.05, $mytime=180000"
attr mytime 180000
attr net abilene_nodelay
attr network networks.${net=abilene_nodelay}_network
attr proactiveprob 0.01
attr processid 25219
attr rep 0
attr repetition 0
attr replication #0
attr resultdir results
attr runnumber 1
attr seedset 0
attr ttl 1000
attr variance 0.05
attr window 60

scalar . 	C 	1e3
scalar . 	a 	1
scalar . 	ctlg 	1e5
scalar . 	lambda 	100
scalar . 	mytime 	180000
scalar . 	proactiveprob 	0.01
scalar . 	rep 	0
scalar . 	ttl 	1000
scalar . 	variance 	0.05
scalar . 	window 	60
scalar abilene_nodelay_network.content_distribution 	repo-0 	5
scalar abilene_nodelay_network.content_distribution 	repo-1 	8
scalar abilene_nodelay_network.content_distribution 	repo-2 	9
scalar abilene_nodelay_network.content_distribution 	repo-3 	0
scalar abilene_nodelay_network.content_distribution 	repo-4 	1
scalar abilene_nodelay_network.content_distribution 	repo-5 	7
scalar abilene_nodelay_network.content_distribution 	repo-6 	6
scalar abilene_nodelay_network.content_distribution 	repo-7 	2
scalar abilene_nodelay_network.content_distribution 	repo-8 	4
scalar abilene_nodelay_network.content_distribution 	repo-9 	10
scalar abilene_nodelay_network.content_distribution 	repo-10 	3
scalar abilene_nodelay_network.content_distribution 	client-0 	10
scalar abilene_nodelay_network.content_distribution 	client-1 	9
scalar abilene_nodelay_network.content_distribution 	client-2 	8
scalar abilene_nodelay_network.content_distribution 	client-3 	7
scalar abilene_nodelay_network.content_distribution 	client-4 	3
scalar abilene_nodelay_network.content_distribution 	client-5 	6
scalar abilene_nodelay_network.content_distribution 	client-6 	5
scalar abilene_nodelay_network.content_distribution 	client-7 	1
scalar abilene_nodelay_network.content_distribution 	client-8 	4
scalar abilene_nodelay_network.content_distribution 	client-9 	0
scalar abilene_nodelay_network.content_distribution 	client-10 	2
scalar abilene_nodelay_network.content_distribution 	repo-0_card 	9071
scalar abilene_nodelay_network.content_distribution 	repo-0_price 	0
scalar abilene_nodelay_network.content_distribution 	repo-1_card 	8986
scalar abilene_nodelay_network.content_distribution 	repo-1_price 	0
scalar abilene_nodelay_network.content_distribution 	repo-2_card 	9050
scalar abilene_nodelay_network.content_distribution 	repo-2_price 	0
scalar abilene_nodelay_network.content_distribution 	repo-3_card 	8986
scalar abilene_nodelay_network.content_distribution 	repo-3_price 	0
scalar abilene_nodelay_network.content_distribution 	repo-4_card 	9064
scalar abilene_nodelay_network.content_distribution 	repo-4_price 	0
scalar abilene_nodelay_network.content_distribution 	repo-5_card 	9170
scalar abilene_nodelay_network.content_distribution 	repo-5_price 	0
scalar abilene_nodelay_network.content_distribution 	repo-6_card 	9151
scalar abilene_nodelay_network.content_distribution 	repo-6_price 	0
scalar abilene_nodelay_network.content_distribution 	repo-7_card 	9112
scalar abilene_nodelay_network.content_distribution 	repo-7_price 	0
scalar abilene_nodelay_network.content_distribution 	repo-8_card 	9132
scalar abilene_nodelay_network.content_distribution 	repo-8_price 	0
scalar abilene_nodelay_network.content_distribution 	repo-9_card 	9101
scalar abilene_nodelay_network.content_distribution 	repo-9_price 	0
scalar abilene_nodelay_network.content_distribution 	repo-10_card 	9177
scalar abilene_nodelay_network.content_distribution 	repo-10_price 	0
scalar abilene_nodelay_network.statistics 	stabilization_time 	36060
scalar abilene_nodelay_network.statistics 	p_hit 	0.45792839711795
scalar abilene_nodelay_network.statistics 	interests 	28027216.181818
scalar abilene_nodelay_network.statistics 	data 	9943345.5454545
scalar abilene_nodelay_network.statistics 	hdistance 	0.8305422776003
scalar abilene_nodelay_network.statistics 	avg_time 	0
scalar abilene_nodelay_network.statistics 	downloads 	197980075
scalar abilene_nodelay_network.statistics 	total_cost 	0
scalar abilene_nodelay_network.statistics 	total_replicas 	100000
scalar abilene_nodelay_network.statistics 	"representations_downloaded 0.615811:0.0696254:0.0426195:0.0343817:0.237562:" 	0
scalar abilene_nodelay_network.statistics 	"slots_per_representation 100:233:500:833:1167:" 	0
scalar abilene_nodelay_network.statistics 	inner_hit 	0.70833662427898
scalar abilene_nodelay_network.statistics 	execution_time 	7064
scalar abilene_nodelay_network.node[0].core_layer 	interests[0] 	21296508
scalar abilene_nodelay_network.node[0].core_layer 	repo_load[0] 	4513512
scalar abilene_nodelay_network.node[0].core_layer 	data[0] 	4631652
scalar abilene_nodelay_network.node[0].core_layer 	slots_sent[face$o[1]->client[0]] 	7918443024
scalar abilene_nodelay_network.node[0].core_layer 	slots_sent[face$o[2]->node[1]] 	256262680
scalar abilene_nodelay_network.node[0].core_layer 	slots_sent[face$o[3]->node[10]] 	84352407
scalar abilene_nodelay_network.node[0].content_store 	p_hit[0] 	0.57057917664248
scalar abilene_nodelay_network.node[0].content_store 	hits[0] 	12151344
scalar abilene_nodelay_network.node[0].content_store 	misses[0] 	9145164
scalar abilene_nodelay_network.node[0].content_store 	decision_yes[0] 	4631652
scalar abilene_nodelay_network.node[0].content_store 	decision_no[0] 	4513512
scalar abilene_nodelay_network.node[0].content_store 	decision_ratio[0] 	0.50645915152533
scalar abilene_nodelay_network.node[0].content_store 	"representation_breakdown[0] 10487:192:35:21:33:" 	0
scalar abilene_nodelay_network.node[0].proactive_component 	hdistance[0].proactive_component 	3.2533774879969
scalar abilene_nodelay_network.node[0].proactive_component 	downloads[0].proactive_component 	87269
scalar abilene_nodelay_network.node[0].proactive_component 	avg_time[0].proactive_component 	0
scalar abilene_nodelay_network.node[1].core_layer 	interests[1] 	31283904
scalar abilene_nodelay_network.node[1].core_layer 	repo_load[1] 	5690197
scalar abilene_nodelay_network.node[1].core_layer 	data[1] 	12695283
scalar abilene_nodelay_network.node[1].core_layer 	slots_sent[face$o[1]->client[1]] 	6614482007
scalar abilene_nodelay_network.node[1].core_layer 	slots_sent[face$o[2]->node[0]] 	406231392
scalar abilene_nodelay_network.node[1].core_layer 	slots_sent[face$o[3]->node[10]] 	310899536
scalar abilene_nodelay_network.node[1].core_layer 	slots_sent[face$o[4]->node[2]] 	720414484
scalar abilene_nodelay_network.node[1].content_store 	p_hit[1] 	0.41230224974479
scalar abilene_nodelay_network.node[1].content_store 	hits[1] 	12898424
scalar abilene_nodelay_network.node[1].content_store 	misses[1] 	18385480
scalar abilene_nodelay_network.node[1].content_store 	decision_yes[1] 	12695283
scalar abilene_nodelay_network.node[1].content_store 	decision_no[1] 	5690197
scalar abilene_nodelay_network.node[1].content_store 	decision_ratio[1] 	0.69050593185492
scalar abilene_nodelay_network.node[1].content_store 	"representation_breakdown[1] 10611:183:29:29:21:" 	0
scalar abilene_nodelay_network.node[1].proactive_component 	hdistance[1].proactive_component 	2.8172562924759
scalar abilene_nodelay_network.node[1].proactive_component 	downloads[1].proactive_component 	111681
scalar abilene_nodelay_network.node[1].proactive_component 	avg_time[1].proactive_component 	0
scalar abilene_nodelay_network.node[2].core_layer 	interests[2] 	38984990
scalar abilene_nodelay_network.node[2].core_layer 	repo_load[2] 	6323489
scalar abilene_nodelay_network.node[2].core_layer 	data[2] 	19051829
scalar abilene_nodelay_network.node[2].core_layer 	slots_sent[face$o[1]->client[2]] 	6741139171
scalar abilene_nodelay_network.node[2].core_layer 	slots_sent[face$o[2]->node[1]] 	857035152
scalar abilene_nodelay_network.node[2].core_layer 	slots_sent[face$o[3]->node[3]] 	993626169
scalar abilene_nodelay_network.node[2].core_layer 	slots_sent[face$o[4]->node[8]] 	431919986
scalar abilene_nodelay_network.node[2].content_store 	p_hit[2] 	0.34910030757992
scalar abilene_nodelay_network.node[2].content_store 	hits[2] 	13609672
scalar abilene_nodelay_network.node[2].content_store 	misses[2] 	25375318
scalar abilene_nodelay_network.node[2].content_store 	decision_yes[2] 	19051829
scalar abilene_nodelay_network.node[2].content_store 	decision_no[2] 	6323489
scalar abilene_nodelay_network.node[2].content_store 	decision_ratio[2] 	0.75080158601362
scalar abilene_nodelay_network.node[2].content_store 	"representation_breakdown[2] 10626:183:35:25:20:" 	0
scalar abilene_nodelay_network.node[2].proactive_component 	hdistance[2].proactive_component 	2.6630174536164
scalar abilene_nodelay_network.node[2].proactive_component 	downloads[2].proactive_component 	118199
scalar abilene_nodelay_network.node[2].proactive_component 	avg_time[2].proactive_component 	0
scalar abilene_nodelay_network.node[3].core_layer 	interests[3] 	37273326
scalar abilene_nodelay_network.node[3].core_layer 	repo_load[3] 	5435665
scalar abilene_nodelay_network.node[3].core_layer 	data[3] 	17573330
scalar abilene_nodelay_network.node[3].core_layer 	slots_sent[face$o[1]->client[3]] 	7083876040
scalar abilene_nodelay_network.node[3].core_layer 	slots_sent[face$o[2]->node[2]] 	972891261
scalar abilene_nodelay_network.node[3].core_layer 	slots_sent[face$o[3]->node[4]] 	642461975
scalar abilene_nodelay_network.node[3].core_layer 	slots_sent[face$o[4]->node[7]] 	473862889
scalar abilene_nodelay_network.node[3].content_store 	p_hit[3] 	0.38269541601949
scalar abilene_nodelay_network.node[3].content_store 	hits[3] 	14264331
scalar abilene_nodelay_network.node[3].content_store 	misses[3] 	23008995
scalar abilene_nodelay_network.node[3].content_store 	decision_yes[3] 	17573330
scalar abilene_nodelay_network.node[3].content_store 	decision_no[3] 	5435665
scalar abilene_nodelay_network.node[3].content_store 	decision_ratio[3] 	0.76375912985335
scalar abilene_nodelay_network.node[3].content_store 	"representation_breakdown[3] 10576:194:36:19:26:" 	0
scalar abilene_nodelay_network.node[3].proactive_component 	hdistance[3].proactive_component 	2.6768215241994
scalar abilene_nodelay_network.node[3].proactive_component 	downloads[3].proactive_component 	123619
scalar abilene_nodelay_network.node[3].proactive_component 	avg_time[3].proactive_component 	0
scalar abilene_nodelay_network.node[4].core_layer 	interests[4] 	25951980
scalar abilene_nodelay_network.node[4].core_layer 	repo_load[4] 	4808276
scalar abilene_nodelay_network.node[4].core_layer 	data[4] 	8224244
scalar abilene_nodelay_network.node[4].core_layer 	slots_sent[face$o[1]->client[4]] 	7516047309
scalar abilene_nodelay_network.node[4].core_layer 	slots_sent[face$o[2]->node[3]] 	505209222
scalar abilene_nodelay_network.node[4].core_layer 	slots_sent[face$o[3]->node[5]] 	350005179
scalar abilene_nodelay_network.node[4].content_store 	p_hit[4] 	0.49782174616349
scalar abilene_nodelay_network.node[4].content_store 	hits[4] 	12919460
scalar abilene_nodelay_network.node[4].content_store 	misses[4] 	13032520
scalar abilene_nodelay_network.node[4].content_store 	decision_yes[4] 	8224244
scalar abilene_nodelay_network.node[4].content_store 	decision_no[4] 	4808276
scalar abilene_nodelay_network.node[4].content_store 	decision_ratio[4] 	0.63105554413114
scalar abilene_nodelay_network.node[4].content_store 	"representation_breakdown[4] 10514:197:43:13:32:" 	0
scalar abilene_nodelay_network.node[4].proactive_component 	hdistance[4].proactive_component 	2.9618372337396
scalar abilene_nodelay_network.node[4].proactive_component 	downloads[4].proactive_component 	101827
scalar abilene_nodelay_network.node[4].proactive_component 	avg_time[4].proactive_component 	0
scalar abilene_nodelay_network.node[5].core_layer 	interests[5] 	22215958
scalar abilene_nodelay_network.node[5].core_layer 	repo_load[5] 	5873152
scalar abilene_nodelay_network.node[5].core_layer 	data[5] 	5415622
scalar abilene_nodelay_network.node[5].core_layer 	slots_sent[face$o[1]->client[5]] 	6598819167
scalar abilene_nodelay_network.node[5].core_layer 	slots_sent[face$o[2]->node[4]] 	251666275
scalar abilene_nodelay_network.node[5].core_layer 	slots_sent[face$o[3]->node[6]] 	196647487
scalar abilene_nodelay_network.node[5].content_store 	p_hit[5] 	0.49186193095972
scalar abilene_nodelay_network.node[5].content_store 	hits[5] 	10927184
scalar abilene_nodelay_network.node[5].content_store 	misses[5] 	11288774
scalar abilene_nodelay_network.node[5].content_store 	decision_yes[5] 	5415622
scalar abilene_nodelay_network.node[5].content_store 	decision_no[5] 	5873152
scalar abilene_nodelay_network.node[5].content_store 	decision_ratio[5] 	0.47973517761982
scalar abilene_nodelay_network.node[5].content_store 	"representation_breakdown[5] 10500:178:43:20:32:" 	0
scalar abilene_nodelay_network.node[5].proactive_component 	hdistance[5].proactive_component 	3.233435423288
scalar abilene_nodelay_network.node[5].proactive_component 	downloads[5].proactive_component 	86525
scalar abilene_nodelay_network.node[5].proactive_component 	avg_time[5].proactive_component 	0
scalar abilene_nodelay_network.node[6].core_layer 	interests[6] 	23950320
scalar abilene_nodelay_network.node[6].core_layer 	repo_load[6] 	4515462
scalar abilene_nodelay_network.node[6].core_layer 	data[6] 	6850593
scalar abilene_nodelay_network.node[6].core_layer 	slots_sent[face$o[1]->client[6]] 	7922591222
scalar abilene_nodelay_network.node[6].core_layer 	slots_sent[face$o[2]->node[5]] 	238543027
scalar abilene_nodelay_network.node[6].core_layer 	slots_sent[face$o[3]->node[7]] 	392768191
scalar abilene_nodelay_network.node[6].content_store 	p_hit[6] 	0.52543201927991
scalar abilene_nodelay_network.node[6].content_store 	hits[6] 	12584265
scalar abilene_nodelay_network.node[6].content_store 	misses[6] 	11366055
scalar abilene_nodelay_network.node[6].content_store 	decision_yes[6] 	6850593
scalar abilene_nodelay_network.node[6].content_store 	decision_no[6] 	4515462
scalar abilene_nodelay_network.node[6].content_store 	decision_ratio[6] 	0.60272390024507
scalar abilene_nodelay_network.node[6].content_store 	"representation_breakdown[6] 10474:212:34:19:32:" 	0
scalar abilene_nodelay_network.node[6].proactive_component 	hdistance[6].proactive_component 	3.0123514307074
scalar abilene_nodelay_network.node[6].proactive_component 	downloads[6].proactive_component 	92297
scalar abilene_nodelay_network.node[6].proactive_component 	avg_time[6].proactive_component 	0
scalar abilene_nodelay_network.node[7].core_layer 	interests[7] 	30249287
scalar abilene_nodelay_network.node[7].core_layer 	repo_load[7] 	5296954
scalar abilene_nodelay_network.node[7].core_layer 	data[7] 	11241802
scalar abilene_nodelay_network.node[7].core_layer 	slots_sent[face$o[1]->client[7]] 	7710160433
scalar abilene_nodelay_network.node[7].core_layer 	slots_sent[face$o[2]->node[3]] 	404022874
scalar abilene_nodelay_network.node[7].core_layer 	slots_sent[face$o[3]->node[6]] 	550172965
scalar abilene_nodelay_network.node[7].core_layer 	slots_sent[face$o[4]->node[8]] 	363056084
scalar abilene_nodelay_network.node[7].content_store 	p_hit[7] 	0.45325137746222
scalar abilene_nodelay_network.node[7].content_store 	hits[7] 	13710531
scalar abilene_nodelay_network.node[7].content_store 	misses[7] 	16538756
scalar abilene_nodelay_network.node[7].content_store 	decision_yes[7] 	11241802
scalar abilene_nodelay_network.node[7].content_store 	decision_no[7] 	5296954
scalar abilene_nodelay_network.node[7].content_store 	decision_ratio[7] 	0.67972476285399
scalar abilene_nodelay_network.node[7].content_store 	"representation_breakdown[7] 10468:193:45:17:33:" 	0
scalar abilene_nodelay_network.node[7].proactive_component 	hdistance[7].proactive_component 	2.6722267102412
scalar abilene_nodelay_network.node[7].proactive_component 	downloads[7].proactive_component 	108932
scalar abilene_nodelay_network.node[7].proactive_component 	avg_time[7].proactive_component 	0
scalar abilene_nodelay_network.node[8].core_layer 	interests[8] 	29341442
scalar abilene_nodelay_network.node[8].core_layer 	repo_load[8] 	4975272
scalar abilene_nodelay_network.node[8].core_layer 	data[8] 	10655393
scalar abilene_nodelay_network.node[8].core_layer 	slots_sent[face$o[1]->client[8]] 	7569173585
scalar abilene_nodelay_network.node[8].core_layer 	slots_sent[face$o[2]->node[2]] 	365065077
scalar abilene_nodelay_network.node[8].core_layer 	slots_sent[face$o[3]->node[7]] 	357370448
scalar abilene_nodelay_network.node[8].core_layer 	slots_sent[face$o[4]->node[9]] 	496047263
scalar abilene_nodelay_network.node[8].content_store 	p_hit[8] 	0.4672836801954
scalar abilene_nodelay_network.node[8].content_store 	hits[8] 	13710777
scalar abilene_nodelay_network.node[8].content_store 	misses[8] 	15630665
scalar abilene_nodelay_network.node[8].content_store 	decision_yes[8] 	10655393
scalar abilene_nodelay_network.node[8].content_store 	decision_no[8] 	4975272
scalar abilene_nodelay_network.node[8].content_store 	decision_ratio[8] 	0.68169799557472
scalar abilene_nodelay_network.node[8].content_store 	"representation_breakdown[8] 10496:216:42:23:23:" 	0
scalar abilene_nodelay_network.node[8].proactive_component 	hdistance[8].proactive_component 	2.5707519028077
scalar abilene_nodelay_network.node[8].proactive_component 	downloads[8].proactive_component 	110626
scalar abilene_nodelay_network.node[8].proactive_component 	avg_time[8].proactive_component 	0
scalar abilene_nodelay_network.node[9].core_layer 	interests[9] 	24004519
scalar abilene_nodelay_network.node[9].core_layer 	repo_load[9] 	4741725
scalar abilene_nodelay_network.node[9].core_layer 	data[9] 	6884472
scalar abilene_nodelay_network.node[9].core_layer 	slots_sent[face$o[1]->client[9]] 	7437107963
scalar abilene_nodelay_network.node[9].core_layer 	slots_sent[face$o[2]->node[10]] 	272747911
scalar abilene_nodelay_network.node[9].core_layer 	slots_sent[face$o[3]->node[8]] 	364575052
scalar abilene_nodelay_network.node[9].content_store 	p_hit[9] 	0.51566632099564
scalar abilene_nodelay_network.node[9].content_store 	hits[9] 	12378322
scalar abilene_nodelay_network.node[9].content_store 	misses[9] 	11626197
scalar abilene_nodelay_network.node[9].content_store 	decision_yes[9] 	6884472
scalar abilene_nodelay_network.node[9].content_store 	decision_no[9] 	4741725
scalar abilene_nodelay_network.node[9].content_store 	decision_ratio[9] 	0.59215167264068
scalar abilene_nodelay_network.node[9].content_store 	"representation_breakdown[9] 10523:204:33:23:27:" 	0
scalar abilene_nodelay_network.node[9].proactive_component 	hdistance[9].proactive_component 	2.8717085311526
scalar abilene_nodelay_network.node[9].proactive_component 	downloads[9].proactive_component 	95626
scalar abilene_nodelay_network.node[9].proactive_component 	avg_time[9].proactive_component 	0
scalar abilene_nodelay_network.node[10].core_layer 	interests[10] 	23747144
scalar abilene_nodelay_network.node[10].core_layer 	repo_load[10] 	5569833
scalar abilene_nodelay_network.node[10].core_layer 	data[10] 	6152581
scalar abilene_nodelay_network.node[10].core_layer 	slots_sent[face$o[1]->client[10]] 	7067797182
scalar abilene_nodelay_network.node[10].core_layer 	slots_sent[face$o[2]->node[0]] 	100500575
scalar abilene_nodelay_network.node[10].core_layer 	slots_sent[face$o[3]->node[1]] 	262920639
scalar abilene_nodelay_network.node[10].core_layer 	slots_sent[face$o[4]->node[9]] 	250399520
scalar abilene_nodelay_network.node[10].content_store 	p_hit[10] 	0.50636531281404
scalar abilene_nodelay_network.node[10].content_store 	hits[10] 	12024730
scalar abilene_nodelay_network.node[10].content_store 	misses[10] 	11722414
scalar abilene_nodelay_network.node[10].content_store 	decision_yes[10] 	6152581
scalar abilene_nodelay_network.node[10].content_store 	decision_no[10] 	5569833
scalar abilene_nodelay_network.node[10].content_store 	decision_ratio[10] 	0.52485614311182
scalar abilene_nodelay_network.node[10].content_store 	"representation_breakdown[10] 10644:186:36:13:26:" 	0
scalar abilene_nodelay_network.node[10].proactive_component 	hdistance[10].proactive_component 	2.8882448679582
scalar abilene_nodelay_network.node[10].proactive_component 	downloads[10].proactive_component 	95235
scalar abilene_nodelay_network.node[10].proactive_component 	avg_time[10].proactive_component 	0
scalar abilene_nodelay_network.client[0] 	hdistance[0].real 	0.86709804833672
scalar abilene_nodelay_network.client[0] 	downloads[0].real 	17997674
scalar abilene_nodelay_network.client[0] 	avg_time[0].real 	0
scalar abilene_nodelay_network.client[1] 	hdistance[1].real 	0.86693988421271
scalar abilene_nodelay_network.client[1] 	downloads[1].real 	17997136
scalar abilene_nodelay_network.client[1] 	avg_time[1].real 	0
scalar abilene_nodelay_network.client[2] 	hdistance[2].real 	0.81164672981315
scalar abilene_nodelay_network.client[2] 	downloads[2].real 	17996571
scalar abilene_nodelay_network.client[2] 	avg_time[2].real 	0
scalar abilene_nodelay_network.client[3] 	hdistance[3].real 	0.78316563550916
scalar abilene_nodelay_network.client[3] 	downloads[3].real 	17999836
scalar abilene_nodelay_network.client[3] 	avg_time[3].real 	0
scalar abilene_nodelay_network.client[4] 	hdistance[4].real 	0.85201981125209
scalar abilene_nodelay_network.client[4] 	downloads[4].real 	18003910
scalar abilene_nodelay_network.client[4] 	avg_time[4].real 	0
scalar abilene_nodelay_network.client[5] 	hdistance[5].real 	0.9491797768997
scalar abilene_nodelay_network.client[5] 	downloads[5].real 	17998091
scalar abilene_nodelay_network.client[5] 	avg_time[5].real 	0
scalar abilene_nodelay_network.client[6] 	hdistance[6].real 	0.85125541582417
scalar abilene_nodelay_network.client[6] 	downloads[6].real 	18002800
scalar abilene_nodelay_network.client[6] 	avg_time[6].real 	0
scalar abilene_nodelay_network.client[7] 	hdistance[7].real 	0.75447446567067
scalar abilene_nodelay_network.client[7] 	downloads[7].real 	17996674
scalar abilene_nodelay_network.client[7] 	avg_time[7].real 	0
scalar abilene_nodelay_network.client[8] 	hdistance[8].real 	0.72825618828458
scalar abilene_nodelay_network.client[8] 	downloads[8].real 	17994890
scalar abilene_nodelay_network.client[8] 	avg_time[8].real 	0
scalar abilene_nodelay_network.client[9] 	hdistance[9].real 	0.81469923357467
scalar abilene_nodelay_network.client[9] 	downloads[9].real 	17998884
scalar abilene_nodelay_network.client[9] 	avg_time[9].real 	0
scalar abilene_nodelay_network.client[10] 	hdistance[10].real 	0.85722986422568
scalar abilene_nodelay_network.client[10] 	downloads[10].real 	17993609
scalar abilene_nodelay_network.client[10] 	avg_time[10].real 	0
