version 2
run General-5-20140627-14:59:19-14564
attr D lce
attr F spr
attr R lru
attr a 1
attr configname General
attr csize 1e3
attr ctlg 1e5
attr datetime 20140627-14:59:19
attr experiment General
attr inifile omnetpp.ini
attr iterationvars "$net=abilene_cost, $rep=1, $priceratiovalue=10, $weights=0.333_0.333_0.334, $lambda=100, $a=1, $ctlg=1e5, $F=spr, $ttl=1000, $D=lce, $xi=1, $R=lru, $csize=1e3, $pricebits=0, $window=600, $variance=0.005, $mytime=1800"
attr iterationvars2 "$net=abilene_cost, $rep=1, $priceratiovalue=10, $weights=0.333_0.333_0.334, $lambda=100, $a=1, $ctlg=1e5, $F=spr, $ttl=1000, $D=lce, $xi=1, $R=lru, $csize=1e3, $pricebits=0, $window=600, $variance=0.005, $mytime=1800, $repetition=0"
attr lambda 100
attr measurement "$net=abilene_cost, $rep=1, $priceratiovalue=10, $weights=0.333_0.333_0.334, $lambda=100, $a=1, $ctlg=1e5, $F=spr, $ttl=1000, $D=lce, $xi=1, $R=lru, $csize=1e3, $pricebits=0, $window=600, $variance=0.005, $mytime=1800"
attr mytime 1800
attr net abilene_cost
attr network "networks.${net=geant_cost, abilene_cost}_network"
attr pricebits 0
attr priceratiovalue 10
attr processid 14564
attr rep 1
attr repetition 0
attr replication #0
attr resultdir results
attr runnumber 5
attr seedset 1
attr ttl 1000
attr variance 0.005
attr weights 0.333_0.333_0.334
attr window 600
attr xi 1

scalar . 	a 	1
scalar . 	csize 	1e3
scalar . 	ctlg 	1e5
scalar . 	lambda 	100
scalar . 	mytime 	1800
scalar . 	pricebits 	0
scalar . 	priceratiovalue 	10
scalar . 	rep 	1
scalar . 	ttl 	1000
scalar . 	variance 	0.005
scalar . 	window 	600
scalar . 	xi 	1
scalar abilene_cost_network.content_distribution 	repo-0 	11
scalar abilene_cost_network.content_distribution 	repo-1 	12
scalar abilene_cost_network.content_distribution 	repo-2 	13
scalar abilene_cost_network.content_distribution 	client-0 	5
scalar abilene_cost_network.content_distribution 	client-1 	0
scalar abilene_cost_network.content_distribution 	client-2 	9
scalar abilene_cost_network.content_distribution 	repo-0_card 	33396
scalar abilene_cost_network.content_distribution 	repo-1_card 	33039
scalar abilene_cost_network.content_distribution 	repo-2_card 	33565
scalar abilene_cost_network.statistics 	repo_popularity[0] 	0.28686251265602
scalar abilene_cost_network.statistics 	repo_popularity[1] 	0.2886063426465
scalar abilene_cost_network.statistics 	repo_popularity[2] 	0.42453114469748
scalar abilene_cost_network.statistics 	stabilization_time 	1204.9
scalar abilene_cost_network.node[1].face$o[4].channel 	price[1] 	0
scalar abilene_cost_network.node[1].face$o[4].channel 	represented_price[1] 	0
scalar abilene_cost_network.node[7].face$o[4].channel 	price[7] 	0
scalar abilene_cost_network.node[7].face$o[4].channel 	represented_price[7] 	0
scalar abilene_cost_network.node[10].face$o[4].channel 	price[10] 	0
scalar abilene_cost_network.node[10].face$o[4].channel 	represented_price[10] 	0
scalar abilene_cost_network.node[11].face$o[1].channel 	price[11] 	0
scalar abilene_cost_network.node[11].face$o[1].channel 	represented_price[11] 	0
scalar abilene_cost_network.node[12].face$o[1].channel 	price[12] 	1
scalar abilene_cost_network.node[12].face$o[1].channel 	represented_price[12] 	1
scalar abilene_cost_network.node[13].face$o[1].channel 	price[13] 	10
scalar abilene_cost_network.node[13].face$o[1].channel 	represented_price[13] 	10
scalar abilene_cost_network.statistics 	p_hit 	0.1069653710983
scalar abilene_cost_network.statistics 	interests 	128998.35714286
scalar abilene_cost_network.statistics 	data 	90514
scalar abilene_cost_network.statistics 	hdistance 	2.9948921081897
scalar abilene_cost_network.statistics 	avg_time 	0.011111750555
scalar abilene_cost_network.statistics 	downloads 	538205
scalar abilene_cost_network.statistics 	total_cost 	1309566
scalar abilene_cost_network.statistics 	total_replicas 	100000
scalar abilene_cost_network.statistics 	inner_hit 	0.35892643137838
scalar abilene_cost_network.statistics 	interests_sent 	538782
scalar abilene_cost_network.node[0].core_layer 	interests[0] 	180385
scalar abilene_cost_network.node[0].core_layer 	data[0] 	129668
scalar abilene_cost_network.node[0].core_layer 	repo_int[0] 	345029
scalar abilene_cost_network.node[0].content_store 	p_hit[0] 	0.28014524489287
scalar abilene_cost_network.node[0].content_store 	hits[0] 	50534
scalar abilene_cost_network.node[0].content_store 	misses[0] 	129851
scalar abilene_cost_network.node[0].content_store 	decision_yes[0] 	129668
scalar abilene_cost_network.node[0].content_store 	decision_no[0] 	0
scalar abilene_cost_network.node[0].content_store 	decision_ratio[0] 	1
scalar abilene_cost_network.node[1].core_layer 	interests[1] 	213235
scalar abilene_cost_network.node[1].core_layer 	data[1] 	204204
scalar abilene_cost_network.node[1].content_store 	p_hit[1] 	0.042352334279082
scalar abilene_cost_network.node[1].content_store 	hits[1] 	9031
scalar abilene_cost_network.node[1].content_store 	misses[1] 	204204
scalar abilene_cost_network.node[1].content_store 	decision_yes[1] 	204204
scalar abilene_cost_network.node[1].content_store 	decision_no[1] 	0
scalar abilene_cost_network.node[1].content_store 	decision_ratio[1] 	1
scalar abilene_cost_network.node[2].core_layer 	interests[2] 	125840
scalar abilene_cost_network.node[2].core_layer 	data[2] 	125502
scalar abilene_cost_network.node[2].content_store 	p_hit[2] 	0.0026859504132231
scalar abilene_cost_network.node[2].content_store 	hits[2] 	338
scalar abilene_cost_network.node[2].content_store 	misses[2] 	125502
scalar abilene_cost_network.node[2].content_store 	decision_yes[2] 	125502
scalar abilene_cost_network.node[2].content_store 	decision_no[2] 	0
scalar abilene_cost_network.node[2].content_store 	decision_ratio[2] 	1
scalar abilene_cost_network.node[3].core_layer 	interests[3] 	125502
scalar abilene_cost_network.node[3].core_layer 	data[3] 	125496
scalar abilene_cost_network.node[3].content_store 	p_hit[3] 	5.5776003569664e-05
scalar abilene_cost_network.node[3].content_store 	hits[3] 	7
scalar abilene_cost_network.node[3].content_store 	misses[3] 	125495
scalar abilene_cost_network.node[3].content_store 	decision_yes[3] 	125496
scalar abilene_cost_network.node[3].content_store 	decision_no[3] 	0
scalar abilene_cost_network.node[3].content_store 	decision_ratio[3] 	1
scalar abilene_cost_network.node[4].core_layer 	interests[4] 	86937
scalar abilene_cost_network.node[4].core_layer 	data[4] 	83588
scalar abilene_cost_network.node[4].content_store 	p_hit[4] 	0.038522148222276
scalar abilene_cost_network.node[4].content_store 	hits[4] 	3349
scalar abilene_cost_network.node[4].content_store 	misses[4] 	83588
scalar abilene_cost_network.node[4].content_store 	decision_yes[4] 	83588
scalar abilene_cost_network.node[4].content_store 	decision_no[4] 	0
scalar abilene_cost_network.node[4].content_store 	decision_ratio[4] 	1
scalar abilene_cost_network.node[5].core_layer 	interests[5] 	179713
scalar abilene_cost_network.node[5].core_layer 	data[5] 	129020
scalar abilene_cost_network.node[5].content_store 	p_hit[5] 	0.28079215193113
scalar abilene_cost_network.node[5].content_store 	hits[5] 	50462
scalar abilene_cost_network.node[5].content_store 	misses[5] 	129251
scalar abilene_cost_network.node[5].content_store 	decision_yes[5] 	129020
scalar abilene_cost_network.node[5].content_store 	decision_no[5] 	0
scalar abilene_cost_network.node[5].content_store 	decision_ratio[5] 	1
scalar abilene_cost_network.node[6].core_layer 	interests[6] 	42083
scalar abilene_cost_network.node[6].core_layer 	data[6] 	36847
scalar abilene_cost_network.node[6].content_store 	p_hit[6] 	0.12442078749139
scalar abilene_cost_network.node[6].content_store 	hits[6] 	5236
scalar abilene_cost_network.node[6].content_store 	misses[6] 	36847
scalar abilene_cost_network.node[6].content_store 	decision_yes[6] 	36847
scalar abilene_cost_network.node[6].content_store 	decision_no[6] 	0
scalar abilene_cost_network.node[6].content_store 	decision_ratio[6] 	1
scalar abilene_cost_network.node[7].core_layer 	interests[7] 	115119
scalar abilene_cost_network.node[7].core_layer 	data[7] 	107176
scalar abilene_cost_network.node[7].content_store 	p_hit[7] 	0.06899816711403
scalar abilene_cost_network.node[7].content_store 	hits[7] 	7943
scalar abilene_cost_network.node[7].content_store 	misses[7] 	107176
scalar abilene_cost_network.node[7].content_store 	decision_yes[7] 	107176
scalar abilene_cost_network.node[7].content_store 	decision_no[7] 	0
scalar abilene_cost_network.node[7].content_store 	decision_ratio[7] 	1
scalar abilene_cost_network.node[8].core_layer 	interests[8] 	41691
scalar abilene_cost_network.node[8].core_layer 	data[8] 	36365
scalar abilene_cost_network.node[8].content_store 	p_hit[8] 	0.12777338034588
scalar abilene_cost_network.node[8].content_store 	hits[8] 	5327
scalar abilene_cost_network.node[8].content_store 	misses[8] 	36364
scalar abilene_cost_network.node[8].content_store 	decision_yes[8] 	36365
scalar abilene_cost_network.node[8].content_store 	decision_no[8] 	0
scalar abilene_cost_network.node[8].content_store 	decision_ratio[8] 	1
scalar abilene_cost_network.node[9].core_layer 	interests[9] 	178684
scalar abilene_cost_network.node[9].core_layer 	data[9] 	128133
scalar abilene_cost_network.node[9].content_store 	p_hit[9] 	0.28199503033288
scalar abilene_cost_network.node[9].content_store 	hits[9] 	50388
scalar abilene_cost_network.node[9].content_store 	misses[9] 	128296
scalar abilene_cost_network.node[9].content_store 	decision_yes[9] 	128133
scalar abilene_cost_network.node[9].content_store 	decision_no[9] 	0
scalar abilene_cost_network.node[9].content_store 	decision_ratio[9] 	1
scalar abilene_cost_network.node[10].core_layer 	interests[10] 	171759
scalar abilene_cost_network.node[10].core_layer 	data[10] 	161197
scalar abilene_cost_network.node[10].content_store 	p_hit[10] 	0.061493138641934
scalar abilene_cost_network.node[10].content_store 	hits[10] 	10562
scalar abilene_cost_network.node[10].content_store 	misses[10] 	161197
scalar abilene_cost_network.node[10].content_store 	decision_yes[10] 	161197
scalar abilene_cost_network.node[10].content_store 	decision_no[10] 	0
scalar abilene_cost_network.node[10].content_store 	decision_ratio[10] 	1
scalar abilene_cost_network.node[11].core_layer 	interests[11] 	117614
scalar abilene_cost_network.node[11].core_layer 	repo_load[11] 	117614
scalar abilene_cost_network.node[11].core_layer 	data[11] 	0
scalar abilene_cost_network.node[11].content_store 	p_hit[11] 	0
scalar abilene_cost_network.node[11].content_store 	hits[11] 	0
scalar abilene_cost_network.node[11].content_store 	misses[11] 	117614
scalar abilene_cost_network.node[11].content_store 	decision_yes[11] 	0
scalar abilene_cost_network.node[11].content_store 	decision_no[11] 	117614
scalar abilene_cost_network.node[11].content_store 	decision_ratio[11] 	0
scalar abilene_cost_network.node[12].core_layer 	interests[12] 	107176
scalar abilene_cost_network.node[12].core_layer 	repo_load[12] 	107176
scalar abilene_cost_network.node[12].core_layer 	data[12] 	0
scalar abilene_cost_network.node[12].content_store 	p_hit[12] 	0
scalar abilene_cost_network.node[12].content_store 	hits[12] 	0
scalar abilene_cost_network.node[12].content_store 	misses[12] 	107176
scalar abilene_cost_network.node[12].content_store 	decision_yes[12] 	0
scalar abilene_cost_network.node[12].content_store 	decision_no[12] 	107176
scalar abilene_cost_network.node[12].content_store 	decision_ratio[12] 	0
scalar abilene_cost_network.node[13].core_layer 	interests[13] 	120239
scalar abilene_cost_network.node[13].core_layer 	repo_load[13] 	120239
scalar abilene_cost_network.node[13].core_layer 	data[13] 	0
scalar abilene_cost_network.node[13].content_store 	p_hit[13] 	0
scalar abilene_cost_network.node[13].content_store 	hits[13] 	0
scalar abilene_cost_network.node[13].content_store 	misses[13] 	120239
scalar abilene_cost_network.node[13].content_store 	decision_yes[13] 	0
scalar abilene_cost_network.node[13].content_store 	decision_no[13] 	120239
scalar abilene_cost_network.node[13].content_store 	decision_ratio[13] 	0
scalar abilene_cost_network.client[0] 	hdistance[0] 	2.7451637606686
scalar abilene_cost_network.client[0] 	downloads[0] 	180202
scalar abilene_cost_network.client[0] 	avg_time[0] 	0.010673553561
scalar abilene_cost_network.client[0] 	interests_sent[0] 	180385
scalar abilene_cost_network.client[5] 	hdistance[5] 	3.7991442038756
scalar abilene_cost_network.client[5] 	downloads[5] 	179482
scalar abilene_cost_network.client[5] 	avg_time[5] 	0.013611051545
scalar abilene_cost_network.client[5] 	interests_sent[5] 	179713
scalar abilene_cost_network.client[9] 	hdistance[9] 	2.4403683600248
scalar abilene_cost_network.client[9] 	downloads[9] 	178521
scalar abilene_cost_network.client[9] 	avg_time[9] 	0.00905064656
scalar abilene_cost_network.client[9] 	interests_sent[9] 	178684
