version 2
run General-415-20140520-14:47:48-14535
attr D costprobprodcorr0.01
attr F nrr
attr R lru
attr a 1
attr configname General
attr csize 1e3
attr ctlg 1e5
attr datetime 20140520-14:47:48
attr experiment General
attr inifile omnetpp.ini
attr iterationvars "$net=one_cache_scenario_3_links, $rep=16, $priceratiovalue=10, $weights=0.25_0.25_0.5, $a=1, $ctlg=1e5, $F=nrr, $ttl=1000, $D=costprobprodcorr0.01, $xi=2, $R=lru, $csize=1e3, $pricebits=0"
attr iterationvars2 "$net=one_cache_scenario_3_links, $rep=16, $priceratiovalue=10, $weights=0.25_0.25_0.5, $a=1, $ctlg=1e5, $F=nrr, $ttl=1000, $D=costprobprodcorr0.01, $xi=2, $R=lru, $csize=1e3, $pricebits=0, $repetition=0"
attr measurement "$net=one_cache_scenario_3_links, $rep=16, $priceratiovalue=10, $weights=0.25_0.25_0.5, $a=1, $ctlg=1e5, $F=nrr, $ttl=1000, $D=costprobprodcorr0.01, $xi=2, $R=lru, $csize=1e3, $pricebits=0"
attr net one_cache_scenario_3_links
attr network networks.${net=one_cache_scenario_3_links}_network
attr pricebits 0
attr priceratiovalue 10
attr processid 14535
attr rep 16
attr repetition 0
attr replication #0
attr resultdir results
attr runnumber 415
attr seedset 16
attr ttl 1000
attr weights 0.25_0.25_0.5
attr xi 2

scalar . 	a 	1
scalar . 	csize 	1e3
scalar . 	ctlg 	1e5
scalar . 	pricebits 	0
scalar . 	priceratiovalue 	10
scalar . 	rep 	16
scalar . 	ttl 	1000
scalar . 	xi 	2
scalar one_cache_scenario_3_links_network.content_distribution 	repo-0 	4
scalar one_cache_scenario_3_links_network.content_distribution 	repo-1 	5
scalar one_cache_scenario_3_links_network.content_distribution 	repo-2 	6
scalar one_cache_scenario_3_links_network.content_distribution 	client-0 	0
scalar one_cache_scenario_3_links_network.content_distribution 	repo-0_card 	24989
scalar one_cache_scenario_3_links_network.content_distribution 	repo-1_card 	25004
scalar one_cache_scenario_3_links_network.content_distribution 	repo-2_card 	50007
scalar one_cache_scenario_3_links_network.statistics 	repo_popularity[0] 	0.22757365780182
scalar one_cache_scenario_3_links_network.statistics 	repo_popularity[1] 	0.31357482808273
scalar one_cache_scenario_3_links_network.statistics 	repo_popularity[2] 	0.45885151411545
scalar one_cache_scenario_3_links_network.node[1].face$o[2].channel 	price[1] 	0
scalar one_cache_scenario_3_links_network.node[1].face$o[2].channel 	represented_price[1] 	0
scalar one_cache_scenario_3_links_network.node[2].face$o[2].channel 	price[2] 	0
scalar one_cache_scenario_3_links_network.node[2].face$o[2].channel 	represented_price[2] 	0
scalar one_cache_scenario_3_links_network.node[3].face$o[2].channel 	price[3] 	0
scalar one_cache_scenario_3_links_network.node[3].face$o[2].channel 	represented_price[3] 	0
scalar one_cache_scenario_3_links_network.node[4].face$o[1].channel 	price[4] 	0
scalar one_cache_scenario_3_links_network.node[4].face$o[1].channel 	represented_price[4] 	0
scalar one_cache_scenario_3_links_network.node[5].face$o[1].channel 	price[5] 	1
scalar one_cache_scenario_3_links_network.node[5].face$o[1].channel 	represented_price[5] 	1
scalar one_cache_scenario_3_links_network.node[6].face$o[1].channel 	price[6] 	10
scalar one_cache_scenario_3_links_network.node[6].face$o[1].channel 	represented_price[6] 	10
scalar one_cache_scenario_3_links_network.statistics 	p_hit 	0.18013378650009
scalar one_cache_scenario_3_links_network.statistics 	interests 	56785.571428571
scalar one_cache_scenario_3_links_network.statistics 	data 	31037.714285714
scalar one_cache_scenario_3_links_network.statistics 	hdistance 	1.2054484423114
scalar one_cache_scenario_3_links_network.statistics 	avg_time 	0
scalar one_cache_scenario_3_links_network.statistics 	downloads 	180235
scalar one_cache_scenario_3_links_network.statistics 	total_cost 	392352
scalar one_cache_scenario_3_links_network.statistics 	total_replicas 	100000
scalar one_cache_scenario_3_links_network.statistics 	interests_sent 	180235
scalar one_cache_scenario_3_links_network.node[0].core_layer 	interests[0] 	180235
scalar one_cache_scenario_3_links_network.node[0].core_layer 	data[0] 	108632
scalar one_cache_scenario_3_links_network.node[0].core_layer 	repo_int[0] 	108632
scalar one_cache_scenario_3_links_network.node[0].content_store 	p_hit[0] 	0.39727577884429
scalar one_cache_scenario_3_links_network.node[0].content_store 	hits[0] 	71603
scalar one_cache_scenario_3_links_network.node[0].content_store 	misses[0] 	108632
scalar one_cache_scenario_3_links_network.node[0].content_store 	decision_yes[0] 	730
scalar one_cache_scenario_3_links_network.node[0].content_store 	decision_no[0] 	107902
scalar one_cache_scenario_3_links_network.node[0].content_store 	decision_ratio[0] 	0.0067199351940496
scalar one_cache_scenario_3_links_network.node[0].content_store 	correction_factor[0] 	0.00019900497512438
scalar one_cache_scenario_3_links_network.node[0].content_store 	xi[0] 	2
scalar one_cache_scenario_3_links_network.node[1].core_layer 	interests[1] 	41162
scalar one_cache_scenario_3_links_network.node[1].core_layer 	data[1] 	41162
scalar one_cache_scenario_3_links_network.node[1].content_store 	p_hit[1] 	0
scalar one_cache_scenario_3_links_network.node[1].content_store 	hits[1] 	0
scalar one_cache_scenario_3_links_network.node[1].content_store 	misses[1] 	41162
scalar one_cache_scenario_3_links_network.node[1].content_store 	decision_yes[1] 	0
scalar one_cache_scenario_3_links_network.node[1].content_store 	decision_no[1] 	41162
scalar one_cache_scenario_3_links_network.node[1].content_store 	decision_ratio[1] 	0
scalar one_cache_scenario_3_links_network.node[2].core_layer 	interests[2] 	31372
scalar one_cache_scenario_3_links_network.node[2].core_layer 	data[2] 	31372
scalar one_cache_scenario_3_links_network.node[2].content_store 	p_hit[2] 	0
scalar one_cache_scenario_3_links_network.node[2].content_store 	hits[2] 	0
scalar one_cache_scenario_3_links_network.node[2].content_store 	misses[2] 	31372
scalar one_cache_scenario_3_links_network.node[2].content_store 	decision_yes[2] 	0
scalar one_cache_scenario_3_links_network.node[2].content_store 	decision_no[2] 	31372
scalar one_cache_scenario_3_links_network.node[2].content_store 	decision_ratio[2] 	0
scalar one_cache_scenario_3_links_network.node[3].core_layer 	interests[3] 	36098
scalar one_cache_scenario_3_links_network.node[3].core_layer 	data[3] 	36098
scalar one_cache_scenario_3_links_network.node[3].content_store 	p_hit[3] 	0
scalar one_cache_scenario_3_links_network.node[3].content_store 	hits[3] 	0
scalar one_cache_scenario_3_links_network.node[3].content_store 	misses[3] 	36098
scalar one_cache_scenario_3_links_network.node[3].content_store 	decision_yes[3] 	0
scalar one_cache_scenario_3_links_network.node[3].content_store 	decision_no[3] 	36098
scalar one_cache_scenario_3_links_network.node[3].content_store 	decision_ratio[3] 	0
scalar one_cache_scenario_3_links_network.node[4].core_layer 	interests[4] 	41162
scalar one_cache_scenario_3_links_network.node[4].core_layer 	repo_load[4] 	41162
scalar one_cache_scenario_3_links_network.node[4].core_layer 	data[4] 	0
scalar one_cache_scenario_3_links_network.node[4].content_store 	p_hit[4] 	0
scalar one_cache_scenario_3_links_network.node[4].content_store 	hits[4] 	0
scalar one_cache_scenario_3_links_network.node[4].content_store 	misses[4] 	41162
scalar one_cache_scenario_3_links_network.node[4].content_store 	decision_yes[4] 	0
scalar one_cache_scenario_3_links_network.node[4].content_store 	decision_no[4] 	41162
scalar one_cache_scenario_3_links_network.node[4].content_store 	decision_ratio[4] 	0
scalar one_cache_scenario_3_links_network.node[5].core_layer 	interests[5] 	31372
scalar one_cache_scenario_3_links_network.node[5].core_layer 	repo_load[5] 	31372
scalar one_cache_scenario_3_links_network.node[5].core_layer 	data[5] 	0
scalar one_cache_scenario_3_links_network.node[5].content_store 	p_hit[5] 	0
scalar one_cache_scenario_3_links_network.node[5].content_store 	hits[5] 	0
scalar one_cache_scenario_3_links_network.node[5].content_store 	misses[5] 	31372
scalar one_cache_scenario_3_links_network.node[5].content_store 	decision_yes[5] 	0
scalar one_cache_scenario_3_links_network.node[5].content_store 	decision_no[5] 	31372
scalar one_cache_scenario_3_links_network.node[5].content_store 	decision_ratio[5] 	0
scalar one_cache_scenario_3_links_network.node[6].core_layer 	interests[6] 	36098
scalar one_cache_scenario_3_links_network.node[6].core_layer 	repo_load[6] 	36098
scalar one_cache_scenario_3_links_network.node[6].core_layer 	data[6] 	0
scalar one_cache_scenario_3_links_network.node[6].content_store 	p_hit[6] 	0
scalar one_cache_scenario_3_links_network.node[6].content_store 	hits[6] 	0
scalar one_cache_scenario_3_links_network.node[6].content_store 	misses[6] 	36098
scalar one_cache_scenario_3_links_network.node[6].content_store 	decision_yes[6] 	0
scalar one_cache_scenario_3_links_network.node[6].content_store 	decision_no[6] 	36098
scalar one_cache_scenario_3_links_network.node[6].content_store 	decision_ratio[6] 	0
scalar one_cache_scenario_3_links_network.client[0] 	hdistance[0] 	1.2054484423114
scalar one_cache_scenario_3_links_network.client[0] 	downloads[0] 	180235
scalar one_cache_scenario_3_links_network.client[0] 	avg_time[0] 	0
scalar one_cache_scenario_3_links_network.client[0] 	interests_sent[0] 	180235
