version 2
run General-5-20150722-13:15:17-32163
attr C 1e4
attr D lce
attr F spr
attr R always_highq
attr a 1
attr brates 0.3_0.7_1.5_2.5_3.5
attr configname General
attr ctlg 1e6
attr datetime 20150722-13:15:17
attr experiment General
attr inifile omnetpp.ini
attr iterationvars "$net=barabasi_100nodes, $rep=3, $lambda=100, $a=1, $ctlg=1e6, $brates=0.3_0.7_1.5_2.5_3.5, $F=spr, $ttl=1000, $D=lce, $R=always_highq, $C=1e4, $window=60, $variance=0.05, $mytime=180000"
attr iterationvars2 "$net=barabasi_100nodes, $rep=3, $lambda=100, $a=1, $ctlg=1e6, $brates=0.3_0.7_1.5_2.5_3.5, $F=spr, $ttl=1000, $D=lce, $R=always_highq, $C=1e4, $window=60, $variance=0.05, $mytime=180000, $repetition=0"
attr lambda 100
attr measurement "$net=barabasi_100nodes, $rep=3, $lambda=100, $a=1, $ctlg=1e6, $brates=0.3_0.7_1.5_2.5_3.5, $F=spr, $ttl=1000, $D=lce, $R=always_highq, $C=1e4, $window=60, $variance=0.05, $mytime=180000"
attr mytime 180000
attr net barabasi_100nodes
attr network networks.${net=barabasi_100nodes}_network
attr processid 32163
attr rep 3
attr repetition 0
attr replication #0
attr resultdir results
attr runnumber 5
attr seedset 3
attr ttl 1000
attr variance 0.05
attr window 60

scalar . 	C 	1e4
scalar . 	a 	1
scalar . 	ctlg 	1e6
scalar . 	lambda 	100
scalar . 	mytime 	180000
scalar . 	rep 	3
scalar . 	ttl 	1000
scalar . 	variance 	0.05
scalar . 	window 	60
scalar barabasi_100nodes_network.content_distribution 	repo-0 	9
scalar barabasi_100nodes_network.content_distribution 	repo-1 	15
scalar barabasi_100nodes_network.content_distribution 	repo-2 	64
scalar barabasi_100nodes_network.content_distribution 	repo-3 	28
scalar barabasi_100nodes_network.content_distribution 	repo-4 	89
scalar barabasi_100nodes_network.content_distribution 	repo-5 	93
scalar barabasi_100nodes_network.content_distribution 	repo-6 	29
scalar barabasi_100nodes_network.content_distribution 	repo-7 	8
scalar barabasi_100nodes_network.content_distribution 	repo-8 	73
scalar barabasi_100nodes_network.content_distribution 	repo-9 	0
scalar barabasi_100nodes_network.content_distribution 	repo-10 	40
scalar barabasi_100nodes_network.content_distribution 	repo-11 	36
scalar barabasi_100nodes_network.content_distribution 	repo-12 	16
scalar barabasi_100nodes_network.content_distribution 	repo-13 	11
scalar barabasi_100nodes_network.content_distribution 	repo-14 	54
scalar barabasi_100nodes_network.content_distribution 	repo-15 	88
scalar barabasi_100nodes_network.content_distribution 	repo-16 	62
scalar barabasi_100nodes_network.content_distribution 	repo-17 	33
scalar barabasi_100nodes_network.content_distribution 	repo-18 	72
scalar barabasi_100nodes_network.content_distribution 	repo-19 	78
scalar barabasi_100nodes_network.content_distribution 	repo-20 	49
scalar barabasi_100nodes_network.content_distribution 	repo-21 	51
scalar barabasi_100nodes_network.content_distribution 	repo-22 	77
scalar barabasi_100nodes_network.content_distribution 	repo-23 	69
scalar barabasi_100nodes_network.content_distribution 	repo-24 	13
scalar barabasi_100nodes_network.content_distribution 	repo-25 	25
scalar barabasi_100nodes_network.content_distribution 	repo-26 	92
scalar barabasi_100nodes_network.content_distribution 	repo-27 	86
scalar barabasi_100nodes_network.content_distribution 	repo-28 	30
scalar barabasi_100nodes_network.content_distribution 	repo-29 	12
scalar barabasi_100nodes_network.content_distribution 	repo-30 	65
scalar barabasi_100nodes_network.content_distribution 	repo-31 	31
scalar barabasi_100nodes_network.content_distribution 	repo-32 	57
scalar barabasi_100nodes_network.content_distribution 	repo-33 	27
scalar barabasi_100nodes_network.content_distribution 	repo-34 	18
scalar barabasi_100nodes_network.content_distribution 	repo-35 	22
scalar barabasi_100nodes_network.content_distribution 	repo-36 	23
scalar barabasi_100nodes_network.content_distribution 	repo-37 	94
scalar barabasi_100nodes_network.content_distribution 	repo-38 	74
scalar barabasi_100nodes_network.content_distribution 	repo-39 	80
scalar barabasi_100nodes_network.content_distribution 	repo-40 	71
scalar barabasi_100nodes_network.content_distribution 	repo-41 	17
scalar barabasi_100nodes_network.content_distribution 	repo-42 	46
scalar barabasi_100nodes_network.content_distribution 	repo-43 	7
scalar barabasi_100nodes_network.content_distribution 	repo-44 	75
scalar barabasi_100nodes_network.content_distribution 	repo-45 	84
scalar barabasi_100nodes_network.content_distribution 	repo-46 	96
scalar barabasi_100nodes_network.content_distribution 	repo-47 	44
scalar barabasi_100nodes_network.content_distribution 	repo-48 	5
scalar barabasi_100nodes_network.content_distribution 	repo-49 	4
scalar barabasi_100nodes_network.content_distribution 	repo-50 	50
scalar barabasi_100nodes_network.content_distribution 	repo-51 	34
scalar barabasi_100nodes_network.content_distribution 	repo-52 	6
scalar barabasi_100nodes_network.content_distribution 	repo-53 	85
scalar barabasi_100nodes_network.content_distribution 	repo-54 	79
scalar barabasi_100nodes_network.content_distribution 	repo-55 	42
scalar barabasi_100nodes_network.content_distribution 	repo-56 	97
scalar barabasi_100nodes_network.content_distribution 	repo-57 	45
scalar barabasi_100nodes_network.content_distribution 	repo-58 	37
scalar barabasi_100nodes_network.content_distribution 	repo-59 	3
scalar barabasi_100nodes_network.content_distribution 	repo-60 	82
scalar barabasi_100nodes_network.content_distribution 	repo-61 	14
scalar barabasi_100nodes_network.content_distribution 	repo-62 	53
scalar barabasi_100nodes_network.content_distribution 	repo-63 	48
scalar barabasi_100nodes_network.content_distribution 	repo-64 	32
scalar barabasi_100nodes_network.content_distribution 	repo-65 	81
scalar barabasi_100nodes_network.content_distribution 	repo-66 	41
scalar barabasi_100nodes_network.content_distribution 	repo-67 	90
scalar barabasi_100nodes_network.content_distribution 	repo-68 	38
scalar barabasi_100nodes_network.content_distribution 	repo-69 	66
scalar barabasi_100nodes_network.content_distribution 	repo-70 	67
scalar barabasi_100nodes_network.content_distribution 	repo-71 	95
scalar barabasi_100nodes_network.content_distribution 	repo-72 	99
scalar barabasi_100nodes_network.content_distribution 	repo-73 	21
scalar barabasi_100nodes_network.content_distribution 	repo-74 	43
scalar barabasi_100nodes_network.content_distribution 	repo-75 	87
scalar barabasi_100nodes_network.content_distribution 	repo-76 	39
scalar barabasi_100nodes_network.content_distribution 	repo-77 	91
scalar barabasi_100nodes_network.content_distribution 	repo-78 	52
scalar barabasi_100nodes_network.content_distribution 	repo-79 	76
scalar barabasi_100nodes_network.content_distribution 	repo-80 	68
scalar barabasi_100nodes_network.content_distribution 	repo-81 	70
scalar barabasi_100nodes_network.content_distribution 	repo-82 	2
scalar barabasi_100nodes_network.content_distribution 	repo-83 	58
scalar barabasi_100nodes_network.content_distribution 	repo-84 	1
scalar barabasi_100nodes_network.content_distribution 	repo-85 	63
scalar barabasi_100nodes_network.content_distribution 	repo-86 	83
scalar barabasi_100nodes_network.content_distribution 	repo-87 	55
scalar barabasi_100nodes_network.content_distribution 	repo-88 	20
scalar barabasi_100nodes_network.content_distribution 	repo-89 	60
scalar barabasi_100nodes_network.content_distribution 	repo-90 	61
scalar barabasi_100nodes_network.content_distribution 	repo-91 	19
scalar barabasi_100nodes_network.content_distribution 	repo-92 	35
scalar barabasi_100nodes_network.content_distribution 	repo-93 	10
scalar barabasi_100nodes_network.content_distribution 	repo-94 	59
scalar barabasi_100nodes_network.content_distribution 	repo-95 	98
scalar barabasi_100nodes_network.content_distribution 	repo-96 	56
scalar barabasi_100nodes_network.content_distribution 	repo-97 	26
scalar barabasi_100nodes_network.content_distribution 	repo-98 	47
scalar barabasi_100nodes_network.content_distribution 	repo-99 	24
scalar barabasi_100nodes_network.content_distribution 	client-0 	72
scalar barabasi_100nodes_network.content_distribution 	client-1 	54
scalar barabasi_100nodes_network.content_distribution 	client-2 	80
scalar barabasi_100nodes_network.content_distribution 	client-3 	21
scalar barabasi_100nodes_network.content_distribution 	client-4 	19
scalar barabasi_100nodes_network.content_distribution 	client-5 	95
scalar barabasi_100nodes_network.content_distribution 	client-6 	3
scalar barabasi_100nodes_network.content_distribution 	client-7 	98
scalar barabasi_100nodes_network.content_distribution 	client-8 	25
scalar barabasi_100nodes_network.content_distribution 	client-9 	41
scalar barabasi_100nodes_network.content_distribution 	client-10 	14
scalar barabasi_100nodes_network.content_distribution 	client-11 	73
scalar barabasi_100nodes_network.content_distribution 	client-12 	71
scalar barabasi_100nodes_network.content_distribution 	client-13 	38
scalar barabasi_100nodes_network.content_distribution 	client-14 	49
scalar barabasi_100nodes_network.content_distribution 	client-15 	22
scalar barabasi_100nodes_network.content_distribution 	client-16 	97
scalar barabasi_100nodes_network.content_distribution 	client-17 	47
scalar barabasi_100nodes_network.content_distribution 	client-18 	31
scalar barabasi_100nodes_network.content_distribution 	client-19 	46
scalar barabasi_100nodes_network.content_distribution 	client-20 	5
scalar barabasi_100nodes_network.content_distribution 	client-21 	76
scalar barabasi_100nodes_network.content_distribution 	client-22 	16
scalar barabasi_100nodes_network.content_distribution 	client-23 	92
scalar barabasi_100nodes_network.content_distribution 	client-24 	20
scalar barabasi_100nodes_network.content_distribution 	client-25 	82
scalar barabasi_100nodes_network.content_distribution 	client-26 	9
scalar barabasi_100nodes_network.content_distribution 	client-27 	56
scalar barabasi_100nodes_network.content_distribution 	client-28 	37
scalar barabasi_100nodes_network.content_distribution 	client-29 	6
scalar barabasi_100nodes_network.content_distribution 	client-30 	30
scalar barabasi_100nodes_network.content_distribution 	client-31 	67
scalar barabasi_100nodes_network.content_distribution 	client-32 	70
scalar barabasi_100nodes_network.content_distribution 	client-33 	53
scalar barabasi_100nodes_network.content_distribution 	client-34 	13
scalar barabasi_100nodes_network.content_distribution 	client-35 	10
scalar barabasi_100nodes_network.content_distribution 	client-36 	60
scalar barabasi_100nodes_network.content_distribution 	client-37 	33
scalar barabasi_100nodes_network.content_distribution 	client-38 	42
scalar barabasi_100nodes_network.content_distribution 	client-39 	0
scalar barabasi_100nodes_network.content_distribution 	client-40 	88
scalar barabasi_100nodes_network.content_distribution 	client-41 	36
scalar barabasi_100nodes_network.content_distribution 	client-42 	87
scalar barabasi_100nodes_network.content_distribution 	client-43 	66
scalar barabasi_100nodes_network.content_distribution 	client-44 	55
scalar barabasi_100nodes_network.content_distribution 	client-45 	17
scalar barabasi_100nodes_network.content_distribution 	client-46 	1
scalar barabasi_100nodes_network.content_distribution 	client-47 	51
scalar barabasi_100nodes_network.content_distribution 	client-48 	77
scalar barabasi_100nodes_network.content_distribution 	client-49 	7
scalar barabasi_100nodes_network.content_distribution 	client-50 	26
scalar barabasi_100nodes_network.content_distribution 	client-51 	58
scalar barabasi_100nodes_network.content_distribution 	client-52 	90
scalar barabasi_100nodes_network.content_distribution 	client-53 	40
scalar barabasi_100nodes_network.content_distribution 	client-54 	2
scalar barabasi_100nodes_network.content_distribution 	client-55 	23
scalar barabasi_100nodes_network.content_distribution 	client-56 	65
scalar barabasi_100nodes_network.content_distribution 	client-57 	4
scalar barabasi_100nodes_network.content_distribution 	client-58 	78
scalar barabasi_100nodes_network.content_distribution 	client-59 	99
scalar barabasi_100nodes_network.content_distribution 	client-60 	59
scalar barabasi_100nodes_network.content_distribution 	client-61 	86
scalar barabasi_100nodes_network.content_distribution 	client-62 	44
scalar barabasi_100nodes_network.content_distribution 	client-63 	35
scalar barabasi_100nodes_network.content_distribution 	client-64 	57
scalar barabasi_100nodes_network.content_distribution 	client-65 	52
scalar barabasi_100nodes_network.content_distribution 	client-66 	29
scalar barabasi_100nodes_network.content_distribution 	client-67 	32
scalar barabasi_100nodes_network.content_distribution 	client-68 	84
scalar barabasi_100nodes_network.content_distribution 	client-69 	75
scalar barabasi_100nodes_network.content_distribution 	client-70 	12
scalar barabasi_100nodes_network.content_distribution 	client-71 	96
scalar barabasi_100nodes_network.content_distribution 	client-72 	39
scalar barabasi_100nodes_network.content_distribution 	client-73 	69
scalar barabasi_100nodes_network.content_distribution 	client-74 	24
scalar barabasi_100nodes_network.content_distribution 	client-75 	83
scalar barabasi_100nodes_network.content_distribution 	client-76 	15
scalar barabasi_100nodes_network.content_distribution 	client-77 	63
scalar barabasi_100nodes_network.content_distribution 	client-78 	79
scalar barabasi_100nodes_network.content_distribution 	client-79 	89
scalar barabasi_100nodes_network.content_distribution 	client-80 	94
scalar barabasi_100nodes_network.content_distribution 	client-81 	18
scalar barabasi_100nodes_network.content_distribution 	client-82 	74
scalar barabasi_100nodes_network.content_distribution 	client-83 	62
scalar barabasi_100nodes_network.content_distribution 	client-84 	93
scalar barabasi_100nodes_network.content_distribution 	client-85 	48
scalar barabasi_100nodes_network.content_distribution 	client-86 	64
scalar barabasi_100nodes_network.content_distribution 	client-87 	8
scalar barabasi_100nodes_network.content_distribution 	client-88 	85
scalar barabasi_100nodes_network.content_distribution 	client-89 	81
scalar barabasi_100nodes_network.content_distribution 	client-90 	28
scalar barabasi_100nodes_network.content_distribution 	client-91 	34
scalar barabasi_100nodes_network.content_distribution 	client-92 	45
scalar barabasi_100nodes_network.content_distribution 	client-93 	68
scalar barabasi_100nodes_network.content_distribution 	client-94 	43
scalar barabasi_100nodes_network.content_distribution 	client-95 	91
scalar barabasi_100nodes_network.content_distribution 	client-96 	50
scalar barabasi_100nodes_network.content_distribution 	client-97 	27
scalar barabasi_100nodes_network.content_distribution 	client-98 	61
scalar barabasi_100nodes_network.content_distribution 	client-99 	11
scalar barabasi_100nodes_network.content_distribution 	repo-0_card 	250071
scalar barabasi_100nodes_network.content_distribution 	repo-0_price 	0
scalar barabasi_100nodes_network.content_distribution 	repo-1_card 	250237
scalar barabasi_100nodes_network.content_distribution 	repo-1_price 	0
scalar barabasi_100nodes_network.content_distribution 	repo-2_card 	249820
scalar barabasi_100nodes_network.content_distribution 	repo-2_price 	0
scalar barabasi_100nodes_network.content_distribution 	repo-3_card 	249872
scalar barabasi_100nodes_network.content_distribution 	repo-3_price 	0
scalar barabasi_100nodes_network.content_distribution 	repo-4_card 	0
scalar barabasi_100nodes_network.content_distribution 	repo-4_price 	0
scalar barabasi_100nodes_network.content_distribution 	repo-5_card 	0
scalar barabasi_100nodes_network.content_distribution 	repo-5_price 	0
scalar barabasi_100nodes_network.content_distribution 	repo-6_card 	0
scalar barabasi_100nodes_network.content_distribution 	repo-6_price 	0
scalar barabasi_100nodes_network.content_distribution 	repo-7_card 	0
scalar barabasi_100nodes_network.content_distribution 	repo-7_price 	0
scalar barabasi_100nodes_network.content_distribution 	repo-8_card 	0
scalar barabasi_100nodes_network.content_distribution 	repo-8_price 	0
scalar barabasi_100nodes_network.content_distribution 	repo-9_card 	0
scalar barabasi_100nodes_network.content_distribution 	repo-9_price 	0
scalar barabasi_100nodes_network.content_distribution 	repo-10_card 	0
scalar barabasi_100nodes_network.content_distribution 	repo-10_price 	0
scalar barabasi_100nodes_network.content_distribution 	repo-11_card 	0
scalar barabasi_100nodes_network.content_distribution 	repo-11_price 	0
scalar barabasi_100nodes_network.content_distribution 	repo-12_card 	0
scalar barabasi_100nodes_network.content_distribution 	repo-12_price 	0
scalar barabasi_100nodes_network.content_distribution 	repo-13_card 	0
scalar barabasi_100nodes_network.content_distribution 	repo-13_price 	0
scalar barabasi_100nodes_network.content_distribution 	repo-14_card 	0
scalar barabasi_100nodes_network.content_distribution 	repo-14_price 	0
scalar barabasi_100nodes_network.content_distribution 	repo-15_card 	0
scalar barabasi_100nodes_network.content_distribution 	repo-15_price 	0
scalar barabasi_100nodes_network.content_distribution 	repo-16_card 	0
scalar barabasi_100nodes_network.content_distribution 	repo-16_price 	0
scalar barabasi_100nodes_network.content_distribution 	repo-17_card 	0
scalar barabasi_100nodes_network.content_distribution 	repo-17_price 	0
scalar barabasi_100nodes_network.content_distribution 	repo-18_card 	0
scalar barabasi_100nodes_network.content_distribution 	repo-18_price 	0
scalar barabasi_100nodes_network.content_distribution 	repo-19_card 	0
scalar barabasi_100nodes_network.content_distribution 	repo-19_price 	0
scalar barabasi_100nodes_network.content_distribution 	repo-20_card 	0
scalar barabasi_100nodes_network.content_distribution 	repo-20_price 	0
scalar barabasi_100nodes_network.content_distribution 	repo-21_card 	0
scalar barabasi_100nodes_network.content_distribution 	repo-21_price 	0
scalar barabasi_100nodes_network.content_distribution 	repo-22_card 	0
scalar barabasi_100nodes_network.content_distribution 	repo-22_price 	0
scalar barabasi_100nodes_network.content_distribution 	repo-23_card 	0
scalar barabasi_100nodes_network.content_distribution 	repo-23_price 	0
scalar barabasi_100nodes_network.content_distribution 	repo-24_card 	0
scalar barabasi_100nodes_network.content_distribution 	repo-24_price 	0
scalar barabasi_100nodes_network.content_distribution 	repo-25_card 	0
scalar barabasi_100nodes_network.content_distribution 	repo-25_price 	0
scalar barabasi_100nodes_network.content_distribution 	repo-26_card 	0
scalar barabasi_100nodes_network.content_distribution 	repo-26_price 	0
scalar barabasi_100nodes_network.content_distribution 	repo-27_card 	0
scalar barabasi_100nodes_network.content_distribution 	repo-27_price 	0
scalar barabasi_100nodes_network.content_distribution 	repo-28_card 	0
scalar barabasi_100nodes_network.content_distribution 	repo-28_price 	0
scalar barabasi_100nodes_network.content_distribution 	repo-29_card 	0
scalar barabasi_100nodes_network.content_distribution 	repo-29_price 	0
scalar barabasi_100nodes_network.content_distribution 	repo-30_card 	0
scalar barabasi_100nodes_network.content_distribution 	repo-30_price 	0
scalar barabasi_100nodes_network.content_distribution 	repo-31_card 	0
scalar barabasi_100nodes_network.content_distribution 	repo-31_price 	0
scalar barabasi_100nodes_network.content_distribution 	repo-32_card 	0
scalar barabasi_100nodes_network.content_distribution 	repo-32_price 	0
scalar barabasi_100nodes_network.content_distribution 	repo-33_card 	0
scalar barabasi_100nodes_network.content_distribution 	repo-33_price 	0
scalar barabasi_100nodes_network.content_distribution 	repo-34_card 	0
scalar barabasi_100nodes_network.content_distribution 	repo-34_price 	0
scalar barabasi_100nodes_network.content_distribution 	repo-35_card 	0
scalar barabasi_100nodes_network.content_distribution 	repo-35_price 	0
scalar barabasi_100nodes_network.content_distribution 	repo-36_card 	0
scalar barabasi_100nodes_network.content_distribution 	repo-36_price 	0
scalar barabasi_100nodes_network.content_distribution 	repo-37_card 	0
scalar barabasi_100nodes_network.content_distribution 	repo-37_price 	0
scalar barabasi_100nodes_network.content_distribution 	repo-38_card 	0
scalar barabasi_100nodes_network.content_distribution 	repo-38_price 	0
scalar barabasi_100nodes_network.content_distribution 	repo-39_card 	0
scalar barabasi_100nodes_network.content_distribution 	repo-39_price 	0
scalar barabasi_100nodes_network.content_distribution 	repo-40_card 	0
scalar barabasi_100nodes_network.content_distribution 	repo-40_price 	0
scalar barabasi_100nodes_network.content_distribution 	repo-41_card 	0
scalar barabasi_100nodes_network.content_distribution 	repo-41_price 	0
scalar barabasi_100nodes_network.content_distribution 	repo-42_card 	0
scalar barabasi_100nodes_network.content_distribution 	repo-42_price 	0
scalar barabasi_100nodes_network.content_distribution 	repo-43_card 	0
scalar barabasi_100nodes_network.content_distribution 	repo-43_price 	0
scalar barabasi_100nodes_network.content_distribution 	repo-44_card 	0
scalar barabasi_100nodes_network.content_distribution 	repo-44_price 	0
scalar barabasi_100nodes_network.content_distribution 	repo-45_card 	0
scalar barabasi_100nodes_network.content_distribution 	repo-45_price 	0
scalar barabasi_100nodes_network.content_distribution 	repo-46_card 	0
scalar barabasi_100nodes_network.content_distribution 	repo-46_price 	0
scalar barabasi_100nodes_network.content_distribution 	repo-47_card 	0
scalar barabasi_100nodes_network.content_distribution 	repo-47_price 	0
scalar barabasi_100nodes_network.content_distribution 	repo-48_card 	0
scalar barabasi_100nodes_network.content_distribution 	repo-48_price 	0
scalar barabasi_100nodes_network.content_distribution 	repo-49_card 	0
scalar barabasi_100nodes_network.content_distribution 	repo-49_price 	0
scalar barabasi_100nodes_network.content_distribution 	repo-50_card 	0
scalar barabasi_100nodes_network.content_distribution 	repo-50_price 	0
scalar barabasi_100nodes_network.content_distribution 	repo-51_card 	0
scalar barabasi_100nodes_network.content_distribution 	repo-51_price 	0
scalar barabasi_100nodes_network.content_distribution 	repo-52_card 	0
scalar barabasi_100nodes_network.content_distribution 	repo-52_price 	0
scalar barabasi_100nodes_network.content_distribution 	repo-53_card 	0
scalar barabasi_100nodes_network.content_distribution 	repo-53_price 	0
scalar barabasi_100nodes_network.content_distribution 	repo-54_card 	0
scalar barabasi_100nodes_network.content_distribution 	repo-54_price 	0
scalar barabasi_100nodes_network.content_distribution 	repo-55_card 	0
scalar barabasi_100nodes_network.content_distribution 	repo-55_price 	0
scalar barabasi_100nodes_network.content_distribution 	repo-56_card 	0
scalar barabasi_100nodes_network.content_distribution 	repo-56_price 	0
scalar barabasi_100nodes_network.content_distribution 	repo-57_card 	0
scalar barabasi_100nodes_network.content_distribution 	repo-57_price 	0
scalar barabasi_100nodes_network.content_distribution 	repo-58_card 	0
scalar barabasi_100nodes_network.content_distribution 	repo-58_price 	0
scalar barabasi_100nodes_network.content_distribution 	repo-59_card 	0
scalar barabasi_100nodes_network.content_distribution 	repo-59_price 	0
scalar barabasi_100nodes_network.content_distribution 	repo-60_card 	0
scalar barabasi_100nodes_network.content_distribution 	repo-60_price 	0
scalar barabasi_100nodes_network.content_distribution 	repo-61_card 	0
scalar barabasi_100nodes_network.content_distribution 	repo-61_price 	0
scalar barabasi_100nodes_network.content_distribution 	repo-62_card 	0
scalar barabasi_100nodes_network.content_distribution 	repo-62_price 	0
scalar barabasi_100nodes_network.content_distribution 	repo-63_card 	0
scalar barabasi_100nodes_network.content_distribution 	repo-63_price 	0
scalar barabasi_100nodes_network.content_distribution 	repo-64_card 	0
scalar barabasi_100nodes_network.content_distribution 	repo-64_price 	0
scalar barabasi_100nodes_network.content_distribution 	repo-65_card 	0
scalar barabasi_100nodes_network.content_distribution 	repo-65_price 	0
scalar barabasi_100nodes_network.content_distribution 	repo-66_card 	0
scalar barabasi_100nodes_network.content_distribution 	repo-66_price 	0
scalar barabasi_100nodes_network.content_distribution 	repo-67_card 	0
scalar barabasi_100nodes_network.content_distribution 	repo-67_price 	0
scalar barabasi_100nodes_network.content_distribution 	repo-68_card 	0
scalar barabasi_100nodes_network.content_distribution 	repo-68_price 	0
scalar barabasi_100nodes_network.content_distribution 	repo-69_card 	0
scalar barabasi_100nodes_network.content_distribution 	repo-69_price 	0
scalar barabasi_100nodes_network.content_distribution 	repo-70_card 	0
scalar barabasi_100nodes_network.content_distribution 	repo-70_price 	0
scalar barabasi_100nodes_network.content_distribution 	repo-71_card 	0
scalar barabasi_100nodes_network.content_distribution 	repo-71_price 	0
scalar barabasi_100nodes_network.content_distribution 	repo-72_card 	0
scalar barabasi_100nodes_network.content_distribution 	repo-72_price 	0
scalar barabasi_100nodes_network.content_distribution 	repo-73_card 	0
scalar barabasi_100nodes_network.content_distribution 	repo-73_price 	0
scalar barabasi_100nodes_network.content_distribution 	repo-74_card 	0
scalar barabasi_100nodes_network.content_distribution 	repo-74_price 	0
scalar barabasi_100nodes_network.content_distribution 	repo-75_card 	0
scalar barabasi_100nodes_network.content_distribution 	repo-75_price 	0
scalar barabasi_100nodes_network.content_distribution 	repo-76_card 	0
scalar barabasi_100nodes_network.content_distribution 	repo-76_price 	0
scalar barabasi_100nodes_network.content_distribution 	repo-77_card 	0
scalar barabasi_100nodes_network.content_distribution 	repo-77_price 	0
scalar barabasi_100nodes_network.content_distribution 	repo-78_card 	0
scalar barabasi_100nodes_network.content_distribution 	repo-78_price 	0
scalar barabasi_100nodes_network.content_distribution 	repo-79_card 	0
scalar barabasi_100nodes_network.content_distribution 	repo-79_price 	0
scalar barabasi_100nodes_network.content_distribution 	repo-80_card 	0
scalar barabasi_100nodes_network.content_distribution 	repo-80_price 	0
scalar barabasi_100nodes_network.content_distribution 	repo-81_card 	0
scalar barabasi_100nodes_network.content_distribution 	repo-81_price 	0
scalar barabasi_100nodes_network.content_distribution 	repo-82_card 	0
scalar barabasi_100nodes_network.content_distribution 	repo-82_price 	0
scalar barabasi_100nodes_network.content_distribution 	repo-83_card 	0
scalar barabasi_100nodes_network.content_distribution 	repo-83_price 	0
scalar barabasi_100nodes_network.content_distribution 	repo-84_card 	0
scalar barabasi_100nodes_network.content_distribution 	repo-84_price 	0
scalar barabasi_100nodes_network.content_distribution 	repo-85_card 	0
scalar barabasi_100nodes_network.content_distribution 	repo-85_price 	0
scalar barabasi_100nodes_network.content_distribution 	repo-86_card 	0
scalar barabasi_100nodes_network.content_distribution 	repo-86_price 	0
scalar barabasi_100nodes_network.content_distribution 	repo-87_card 	0
scalar barabasi_100nodes_network.content_distribution 	repo-87_price 	0
scalar barabasi_100nodes_network.content_distribution 	repo-88_card 	0
scalar barabasi_100nodes_network.content_distribution 	repo-88_price 	0
scalar barabasi_100nodes_network.content_distribution 	repo-89_card 	0
scalar barabasi_100nodes_network.content_distribution 	repo-89_price 	0
scalar barabasi_100nodes_network.content_distribution 	repo-90_card 	0
scalar barabasi_100nodes_network.content_distribution 	repo-90_price 	0
scalar barabasi_100nodes_network.content_distribution 	repo-91_card 	0
scalar barabasi_100nodes_network.content_distribution 	repo-91_price 	0
scalar barabasi_100nodes_network.content_distribution 	repo-92_card 	0
scalar barabasi_100nodes_network.content_distribution 	repo-92_price 	0
scalar barabasi_100nodes_network.content_distribution 	repo-93_card 	0
scalar barabasi_100nodes_network.content_distribution 	repo-93_price 	0
scalar barabasi_100nodes_network.content_distribution 	repo-94_card 	0
scalar barabasi_100nodes_network.content_distribution 	repo-94_price 	0
scalar barabasi_100nodes_network.content_distribution 	repo-95_card 	0
scalar barabasi_100nodes_network.content_distribution 	repo-95_price 	0
scalar barabasi_100nodes_network.content_distribution 	repo-96_card 	0
scalar barabasi_100nodes_network.content_distribution 	repo-96_price 	0
scalar barabasi_100nodes_network.content_distribution 	repo-97_card 	0
scalar barabasi_100nodes_network.content_distribution 	repo-97_price 	0
scalar barabasi_100nodes_network.content_distribution 	repo-98_card 	0
scalar barabasi_100nodes_network.content_distribution 	repo-98_price 	0
scalar barabasi_100nodes_network.content_distribution 	repo-99_card 	0
scalar barabasi_100nodes_network.content_distribution 	repo-99_price 	0
scalar barabasi_100nodes_network.statistics 	stabilization_time 	352.4
scalar barabasi_100nodes_network.statistics 	p_hit 	0.11547146232806
scalar barabasi_100nodes_network.statistics 	interests 	86903.55
scalar barabasi_100nodes_network.statistics 	data 	44133.03
scalar barabasi_100nodes_network.statistics 	hdistance 	1.8426402336463
scalar barabasi_100nodes_network.statistics 	avg_time 	0
scalar barabasi_100nodes_network.statistics 	downloads 	1616660
scalar barabasi_100nodes_network.statistics 	total_cost 	0
scalar barabasi_100nodes_network.statistics 	total_replicas 	1000000
scalar barabasi_100nodes_network.statistics 	"representations_downloaded 0.379283:0:0:0:0.620717:" 	0
scalar barabasi_100nodes_network.statistics 	"slots_per_representation 100:233:500:833:1167:" 	0
scalar barabasi_100nodes_network.statistics 	inner_hit 	2656.5938583252
scalar barabasi_100nodes_network.statistics 	execution_time 	495
scalar barabasi_100nodes_network.node[0].core_layer 	interests[0] 	1355502
scalar barabasi_100nodes_network.node[0].core_layer 	data[0] 	897085
scalar barabasi_100nodes_network.node[0].core_layer 	slots_sent[face$o[1]->client[0]] 	10823834
scalar barabasi_100nodes_network.node[0].core_layer 	slots_sent[face$o[2]->node[1]] 	9190956
scalar barabasi_100nodes_network.node[0].core_layer 	slots_sent[face$o[3]->node[2]] 	415279789
scalar barabasi_100nodes_network.node[0].core_layer 	slots_sent[face$o[4]->node[5]] 	28720478
scalar barabasi_100nodes_network.node[0].core_layer 	slots_sent[face$o[5]->node[10]] 	17545651
scalar barabasi_100nodes_network.node[0].core_layer 	slots_sent[face$o[6]->node[11]] 	8882674
scalar barabasi_100nodes_network.node[0].core_layer 	slots_sent[face$o[7]->node[15]] 	16400812
scalar barabasi_100nodes_network.node[0].core_layer 	slots_sent[face$o[8]->node[21]] 	21100566
scalar barabasi_100nodes_network.node[0].core_layer 	slots_sent[face$o[9]->node[22]] 	6351031
scalar barabasi_100nodes_network.node[0].core_layer 	slots_sent[face$o[10]->node[28]] 	6473265
scalar barabasi_100nodes_network.node[0].core_layer 	slots_sent[face$o[11]->node[37]] 	9200694
scalar barabasi_100nodes_network.node[0].core_layer 	slots_sent[face$o[12]->node[44]] 	9232366
scalar barabasi_100nodes_network.node[0].core_layer 	slots_sent[face$o[13]->node[58]] 	17451493
scalar barabasi_100nodes_network.node[0].core_layer 	slots_sent[face$o[14]->node[73]] 	17650212
scalar barabasi_100nodes_network.node[0].core_layer 	slots_sent[face$o[15]->node[74]] 	8892843
scalar barabasi_100nodes_network.node[0].core_layer 	slots_sent[face$o[16]->node[93]] 	9103699
scalar barabasi_100nodes_network.node[0].content_store 	p_hit[0] 	0.023802251859459
scalar barabasi_100nodes_network.node[0].content_store 	hits[0] 	32264
scalar barabasi_100nodes_network.node[0].content_store 	misses[0] 	1323238
scalar barabasi_100nodes_network.node[0].content_store 	decision_yes[0] 	463078
scalar barabasi_100nodes_network.node[0].content_store 	decision_no[0] 	434007
scalar barabasi_100nodes_network.node[0].content_store 	decision_ratio[0] 	0.51620303538684
scalar barabasi_100nodes_network.node[0].proactive_component 	hdistance[0].proactive_component 	2.4208729696963
scalar barabasi_100nodes_network.node[0].proactive_component 	downloads[0].proactive_component 	1395604
scalar barabasi_100nodes_network.node[0].proactive_component 	avg_time[0].proactive_component 	0
scalar barabasi_100nodes_network.node[1].core_layer 	interests[1] 	22095
scalar barabasi_100nodes_network.node[1].core_layer 	data[1] 	13293
scalar barabasi_100nodes_network.node[1].core_layer 	slots_sent[face$o[1]->client[1]] 	12548415
scalar barabasi_100nodes_network.node[1].core_layer 	slots_sent[face$o[2]->node[0]] 	0
scalar barabasi_100nodes_network.node[1].content_store 	p_hit[1] 	0.39837067209776
scalar barabasi_100nodes_network.node[1].content_store 	hits[1] 	8802
scalar barabasi_100nodes_network.node[1].content_store 	misses[1] 	13293
scalar barabasi_100nodes_network.node[1].content_store 	decision_yes[1] 	7368
scalar barabasi_100nodes_network.node[1].content_store 	decision_no[1] 	5925
scalar barabasi_100nodes_network.node[1].content_store 	decision_ratio[1] 	0.55427668697811
scalar barabasi_100nodes_network.node[1].proactive_component 	hdistance[1].proactive_component 	3.6784533333333
scalar barabasi_100nodes_network.node[1].proactive_component 	downloads[1].proactive_component 	18750
scalar barabasi_100nodes_network.node[1].proactive_component 	avg_time[1].proactive_component 	0
scalar barabasi_100nodes_network.node[2].core_layer 	interests[2] 	1334350
scalar barabasi_100nodes_network.node[2].core_layer 	data[2] 	875155
scalar barabasi_100nodes_network.node[2].core_layer 	slots_sent[face$o[1]->client[2]] 	10871392
scalar barabasi_100nodes_network.node[2].core_layer 	slots_sent[face$o[2]->node[0]] 	53438491
scalar barabasi_100nodes_network.node[2].core_layer 	slots_sent[face$o[3]->node[3]] 	17451462
scalar barabasi_100nodes_network.node[2].core_layer 	slots_sent[face$o[4]->node[4]] 	45736199
scalar barabasi_100nodes_network.node[2].core_layer 	slots_sent[face$o[5]->node[6]] 	9158181
scalar barabasi_100nodes_network.node[2].core_layer 	slots_sent[face$o[6]->node[7]] 	107672247
scalar barabasi_100nodes_network.node[2].core_layer 	slots_sent[face$o[7]->node[8]] 	65943881
scalar barabasi_100nodes_network.node[2].core_layer 	slots_sent[face$o[8]->node[13]] 	39564822
scalar barabasi_100nodes_network.node[2].core_layer 	slots_sent[face$o[9]->node[16]] 	58144237
scalar barabasi_100nodes_network.node[2].core_layer 	slots_sent[face$o[10]->node[18]] 	24400394
scalar barabasi_100nodes_network.node[2].core_layer 	slots_sent[face$o[11]->node[25]] 	17653848
scalar barabasi_100nodes_network.node[2].core_layer 	slots_sent[face$o[12]->node[26]] 	24597733
scalar barabasi_100nodes_network.node[2].core_layer 	slots_sent[face$o[13]->node[29]] 	9121739
scalar barabasi_100nodes_network.node[2].core_layer 	slots_sent[face$o[14]->node[32]] 	15139605
scalar barabasi_100nodes_network.node[2].core_layer 	slots_sent[face$o[15]->node[33]] 	8936357
scalar barabasi_100nodes_network.node[2].core_layer 	slots_sent[face$o[16]->node[34]] 	8986503
scalar barabasi_100nodes_network.node[2].core_layer 	slots_sent[face$o[17]->node[36]] 	17579162
scalar barabasi_100nodes_network.node[2].core_layer 	slots_sent[face$o[18]->node[41]] 	42104400
scalar barabasi_100nodes_network.node[2].core_layer 	slots_sent[face$o[19]->node[45]] 	9029247
scalar barabasi_100nodes_network.node[2].core_layer 	slots_sent[face$o[20]->node[59]] 	9193891
scalar barabasi_100nodes_network.node[2].core_layer 	slots_sent[face$o[21]->node[62]] 	25698260
scalar barabasi_100nodes_network.node[2].core_layer 	slots_sent[face$o[22]->node[79]] 	9037815
scalar barabasi_100nodes_network.node[2].content_store 	p_hit[2] 	0.038508637164162
scalar barabasi_100nodes_network.node[2].content_store 	hits[2] 	51384
scalar barabasi_100nodes_network.node[2].content_store 	misses[2] 	1282966
scalar barabasi_100nodes_network.node[2].content_store 	decision_yes[2] 	459879
scalar barabasi_100nodes_network.node[2].content_store 	decision_no[2] 	415276
scalar barabasi_100nodes_network.node[2].content_store 	decision_ratio[2] 	0.52548291445515
scalar barabasi_100nodes_network.node[2].proactive_component 	hdistance[2].proactive_component 	3.2215947579057
scalar barabasi_100nodes_network.node[2].proactive_component 	downloads[2].proactive_component 	1333055
scalar barabasi_100nodes_network.node[2].proactive_component 	avg_time[2].proactive_component 	0
scalar barabasi_100nodes_network.node[3].core_layer 	interests[3] 	40074
scalar barabasi_100nodes_network.node[3].core_layer 	data[3] 	25284
scalar barabasi_100nodes_network.node[3].core_layer 	slots_sent[face$o[1]->client[3]] 	12487800
scalar barabasi_100nodes_network.node[3].core_layer 	slots_sent[face$o[2]->node[2]] 	0
scalar barabasi_100nodes_network.node[3].core_layer 	slots_sent[face$o[3]->node[52]] 	9038826
scalar barabasi_100nodes_network.node[3].content_store 	p_hit[3] 	0.23296900733643
scalar barabasi_100nodes_network.node[3].content_store 	hits[3] 	9336
scalar barabasi_100nodes_network.node[3].content_store 	misses[3] 	30738
scalar barabasi_100nodes_network.node[3].content_store 	decision_yes[3] 	13986
scalar barabasi_100nodes_network.node[3].content_store 	decision_no[3] 	11298
scalar barabasi_100nodes_network.node[3].content_store 	decision_ratio[3] 	0.5531561461794
scalar barabasi_100nodes_network.node[3].proactive_component 	hdistance[3].proactive_component 	4.2283774906941
scalar barabasi_100nodes_network.node[3].proactive_component 	downloads[3].proactive_component 	36536
scalar barabasi_100nodes_network.node[3].proactive_component 	avg_time[3].proactive_component 	0
scalar barabasi_100nodes_network.node[4].core_layer 	interests[4] 	102249
scalar barabasi_100nodes_network.node[4].core_layer 	data[4] 	66872
scalar barabasi_100nodes_network.node[4].core_layer 	slots_sent[face$o[1]->client[4]] 	12284567
scalar barabasi_100nodes_network.node[4].core_layer 	slots_sent[face$o[2]->node[2]] 	0
scalar barabasi_100nodes_network.node[4].core_layer 	slots_sent[face$o[3]->node[27]] 	12535192
scalar barabasi_100nodes_network.node[4].core_layer 	slots_sent[face$o[4]->node[30]] 	17719383
scalar barabasi_100nodes_network.node[4].core_layer 	slots_sent[face$o[5]->node[85]] 	9151091
scalar barabasi_100nodes_network.node[4].content_store 	p_hit[4] 	0.10988860526753
scalar barabasi_100nodes_network.node[4].content_store 	hits[4] 	11236
scalar barabasi_100nodes_network.node[4].content_store 	misses[4] 	91013
scalar barabasi_100nodes_network.node[4].content_store 	decision_yes[4] 	36597
scalar barabasi_100nodes_network.node[4].content_store 	decision_no[4] 	30275
scalar barabasi_100nodes_network.node[4].content_store 	decision_ratio[4] 	0.54726941021653
scalar barabasi_100nodes_network.node[4].proactive_component 	hdistance[4].proactive_component 	4.2506841817186
scalar barabasi_100nodes_network.node[4].proactive_component 	downloads[4].proactive_component 	96831
scalar barabasi_100nodes_network.node[4].proactive_component 	avg_time[4].proactive_component 	0
scalar barabasi_100nodes_network.node[5].core_layer 	interests[5] 	445074
scalar barabasi_100nodes_network.node[5].core_layer 	data[5] 	285106
scalar barabasi_100nodes_network.node[5].core_layer 	slots_sent[face$o[1]->client[5]] 	11119337
scalar barabasi_100nodes_network.node[5].core_layer 	slots_sent[face$o[2]->node[0]] 	170927502
scalar barabasi_100nodes_network.node[5].core_layer 	slots_sent[face$o[3]->node[9]] 	6481696
scalar barabasi_100nodes_network.node[5].core_layer 	slots_sent[face$o[4]->node[35]] 	17587833
scalar barabasi_100nodes_network.node[5].content_store 	p_hit[5] 	0.060518026215865
scalar barabasi_100nodes_network.node[5].content_store 	hits[5] 	26935
scalar barabasi_100nodes_network.node[5].content_store 	misses[5] 	418139
scalar barabasi_100nodes_network.node[5].content_store 	decision_yes[5] 	144871
scalar barabasi_100nodes_network.node[5].content_store 	decision_no[5] 	140235
scalar barabasi_100nodes_network.node[5].content_store 	decision_ratio[5] 	0.50813030942877
scalar barabasi_100nodes_network.node[5].proactive_component 	hdistance[5].proactive_component 	2.2076153319766
scalar barabasi_100nodes_network.node[5].proactive_component 	downloads[5].proactive_component 	450092
scalar barabasi_100nodes_network.node[5].proactive_component 	avg_time[5].proactive_component 	0
scalar barabasi_100nodes_network.node[6].core_layer 	interests[6] 	22093
scalar barabasi_100nodes_network.node[6].core_layer 	data[6] 	13232
scalar barabasi_100nodes_network.node[6].core_layer 	slots_sent[face$o[1]->client[6]] 	12626505
scalar barabasi_100nodes_network.node[6].core_layer 	slots_sent[face$o[2]->node[2]] 	0
scalar barabasi_100nodes_network.node[6].content_store 	p_hit[6] 	0.40107726429186
scalar barabasi_100nodes_network.node[6].content_store 	hits[6] 	8861
scalar barabasi_100nodes_network.node[6].content_store 	misses[6] 	13232
scalar barabasi_100nodes_network.node[6].content_store 	decision_yes[6] 	7343
scalar barabasi_100nodes_network.node[6].content_store 	decision_no[6] 	5889
scalar barabasi_100nodes_network.node[6].content_store 	decision_ratio[6] 	0.55494256348247
scalar barabasi_100nodes_network.node[6].proactive_component 	hdistance[6].proactive_component 	4.2308721957488
scalar barabasi_100nodes_network.node[6].proactive_component 	downloads[6].proactive_component 	18677
scalar barabasi_100nodes_network.node[6].proactive_component 	avg_time[6].proactive_component 	0
scalar barabasi_100nodes_network.node[7].core_layer 	interests[7] 	239456
scalar barabasi_100nodes_network.node[7].core_layer 	data[7] 	158665
scalar barabasi_100nodes_network.node[7].core_layer 	slots_sent[face$o[1]->client[7]] 	12310871
scalar barabasi_100nodes_network.node[7].core_layer 	slots_sent[face$o[2]->node[2]] 	0
scalar barabasi_100nodes_network.node[7].core_layer 	slots_sent[face$o[3]->node[23]] 	55867364
scalar barabasi_100nodes_network.node[7].core_layer 	slots_sent[face$o[4]->node[31]] 	33708924
scalar barabasi_100nodes_network.node[7].core_layer 	slots_sent[face$o[5]->node[49]] 	8922962
scalar barabasi_100nodes_network.node[7].core_layer 	slots_sent[face$o[6]->node[90]] 	6393015
scalar barabasi_100nodes_network.node[7].content_store 	p_hit[7] 	0.060236536148603
scalar barabasi_100nodes_network.node[7].content_store 	hits[7] 	14424
scalar barabasi_100nodes_network.node[7].content_store 	misses[7] 	225032
scalar barabasi_100nodes_network.node[7].content_store 	decision_yes[7] 	86041
scalar barabasi_100nodes_network.node[7].content_store 	decision_no[7] 	72624
scalar barabasi_100nodes_network.node[7].content_store 	decision_ratio[7] 	0.54228090631204
scalar barabasi_100nodes_network.node[7].proactive_component 	hdistance[7].proactive_component 	4.2410611006863
scalar barabasi_100nodes_network.node[7].proactive_component 	downloads[7].proactive_component 	233418
scalar barabasi_100nodes_network.node[7].proactive_component 	avg_time[7].proactive_component 	0
scalar barabasi_100nodes_network.node[8].core_layer 	interests[8] 	148153
scalar barabasi_100nodes_network.node[8].core_layer 	data[8] 	96671
scalar barabasi_100nodes_network.node[8].core_layer 	slots_sent[face$o[1]->client[8]] 	12286599
scalar barabasi_100nodes_network.node[8].core_layer 	slots_sent[face$o[2]->node[2]] 	0
scalar barabasi_100nodes_network.node[8].core_layer 	slots_sent[face$o[3]->node[12]] 	8926529
scalar barabasi_100nodes_network.node[8].core_layer 	slots_sent[face$o[4]->node[14]] 	8962039
scalar barabasi_100nodes_network.node[8].core_layer 	slots_sent[face$o[5]->node[17]] 	9076203
scalar barabasi_100nodes_network.node[8].core_layer 	slots_sent[face$o[6]->node[39]] 	17432042
scalar barabasi_100nodes_network.node[8].core_layer 	slots_sent[face$o[7]->node[61]] 	9110747
scalar barabasi_100nodes_network.node[8].core_layer 	slots_sent[face$o[8]->node[66]] 	8965240
scalar barabasi_100nodes_network.node[8].content_store 	p_hit[8] 	0.092843209384893
scalar barabasi_100nodes_network.node[8].content_store 	hits[8] 	13755
scalar barabasi_100nodes_network.node[8].content_store 	misses[8] 	134398
scalar barabasi_100nodes_network.node[8].content_store 	decision_yes[8] 	52743
scalar barabasi_100nodes_network.node[8].content_store 	decision_no[8] 	43928
scalar barabasi_100nodes_network.node[8].content_store 	decision_ratio[8] 	0.54559278377176
scalar barabasi_100nodes_network.node[8].proactive_component 	hdistance[8].proactive_component 	4.233052979147
scalar barabasi_100nodes_network.node[8].proactive_component 	downloads[8].proactive_component 	141131
scalar barabasi_100nodes_network.node[8].proactive_component 	avg_time[8].proactive_component 	0
scalar barabasi_100nodes_network.node[9].core_layer 	interests[9] 	389355
scalar barabasi_100nodes_network.node[9].core_layer 	repo_load[9] 	372465
scalar barabasi_100nodes_network.node[9].core_layer 	data[9] 	9461
scalar barabasi_100nodes_network.node[9].core_layer 	slots_sent[face$o[1]->client[9]] 	10512448
scalar barabasi_100nodes_network.node[9].core_layer 	slots_sent[face$o[2]->node[5]] 	154367479
scalar barabasi_100nodes_network.node[9].content_store 	p_hit[9] 	0.019080273786133
scalar barabasi_100nodes_network.node[9].content_store 	hits[9] 	7429
scalar barabasi_100nodes_network.node[9].content_store 	misses[9] 	381926
scalar barabasi_100nodes_network.node[9].content_store 	decision_yes[9] 	5188
scalar barabasi_100nodes_network.node[9].content_store 	decision_no[9] 	376738
scalar barabasi_100nodes_network.node[9].content_store 	decision_ratio[9] 	0.013583783245969
scalar barabasi_100nodes_network.node[9].proactive_component 	hdistance[9].proactive_component 	1.1192091196972
scalar barabasi_100nodes_network.node[9].proactive_component 	downloads[9].proactive_component 	415891
scalar barabasi_100nodes_network.node[9].proactive_component 	avg_time[9].proactive_component 	0
scalar barabasi_100nodes_network.node[10].core_layer 	interests[10] 	40227
scalar barabasi_100nodes_network.node[10].core_layer 	data[10] 	25511
scalar barabasi_100nodes_network.node[10].core_layer 	slots_sent[face$o[1]->client[10]] 	12299010
scalar barabasi_100nodes_network.node[10].core_layer 	slots_sent[face$o[2]->node[0]] 	0
scalar barabasi_100nodes_network.node[10].core_layer 	slots_sent[face$o[3]->node[71]] 	9048727
scalar barabasi_100nodes_network.node[10].content_store 	p_hit[10] 	0.22865239764337
scalar barabasi_100nodes_network.node[10].content_store 	hits[10] 	9198
scalar barabasi_100nodes_network.node[10].content_store 	misses[10] 	31029
scalar barabasi_100nodes_network.node[10].content_store 	decision_yes[10] 	14053
scalar barabasi_100nodes_network.node[10].content_store 	decision_no[10] 	11458
scalar barabasi_100nodes_network.node[10].content_store 	decision_ratio[10] 	0.55086041315511
scalar barabasi_100nodes_network.node[10].proactive_component 	hdistance[10].proactive_component 	3.6790244167414
scalar barabasi_100nodes_network.node[10].proactive_component 	downloads[10].proactive_component 	36819
scalar barabasi_100nodes_network.node[10].proactive_component 	avg_time[10].proactive_component 	0
scalar barabasi_100nodes_network.node[11].core_layer 	interests[11] 	21703
scalar barabasi_100nodes_network.node[11].core_layer 	data[11] 	12835
scalar barabasi_100nodes_network.node[11].core_layer 	slots_sent[face$o[1]->client[11]] 	12564559
scalar barabasi_100nodes_network.node[11].core_layer 	slots_sent[face$o[2]->node[0]] 	0
scalar barabasi_100nodes_network.node[11].content_store 	p_hit[11] 	0.40860710500852
scalar barabasi_100nodes_network.node[11].content_store 	hits[11] 	8868
scalar barabasi_100nodes_network.node[11].content_store 	misses[11] 	12835
scalar barabasi_100nodes_network.node[11].content_store 	decision_yes[11] 	7122
scalar barabasi_100nodes_network.node[11].content_store 	decision_no[11] 	5713
scalar barabasi_100nodes_network.node[11].content_store 	decision_ratio[11] 	0.55488897545773
scalar barabasi_100nodes_network.node[11].proactive_component 	hdistance[11].proactive_component 	3.6893032699295
scalar barabasi_100nodes_network.node[11].proactive_component 	downloads[11].proactive_component 	18716
scalar barabasi_100nodes_network.node[11].proactive_component 	avg_time[11].proactive_component 	0
scalar barabasi_100nodes_network.node[12].core_layer 	interests[12] 	21282
scalar barabasi_100nodes_network.node[12].core_layer 	data[12] 	12580
scalar barabasi_100nodes_network.node[12].core_layer 	slots_sent[face$o[1]->client[12]] 	12788132
scalar barabasi_100nodes_network.node[12].core_layer 	slots_sent[face$o[2]->node[8]] 	0
scalar barabasi_100nodes_network.node[12].content_store 	p_hit[12] 	0.40889014190396
scalar barabasi_100nodes_network.node[12].content_store 	hits[12] 	8702
scalar barabasi_100nodes_network.node[12].content_store 	misses[12] 	12580
scalar barabasi_100nodes_network.node[12].content_store 	decision_yes[12] 	7187
scalar barabasi_100nodes_network.node[12].content_store 	decision_no[12] 	5393
scalar barabasi_100nodes_network.node[12].content_store 	decision_ratio[12] 	0.57130365659777
scalar barabasi_100nodes_network.node[12].proactive_component 	hdistance[12].proactive_component 	5.2331977310491
scalar barabasi_100nodes_network.node[12].proactive_component 	downloads[12].proactive_component 	17453
scalar barabasi_100nodes_network.node[12].proactive_component 	avg_time[12].proactive_component 	0
scalar barabasi_100nodes_network.node[13].core_layer 	interests[13] 	88592
scalar barabasi_100nodes_network.node[13].core_layer 	data[13] 	57772
scalar barabasi_100nodes_network.node[13].core_layer 	slots_sent[face$o[1]->client[13]] 	12560717
scalar barabasi_100nodes_network.node[13].core_layer 	slots_sent[face$o[2]->node[2]] 	0
scalar barabasi_100nodes_network.node[13].core_layer 	slots_sent[face$o[3]->node[67]] 	8889419
scalar barabasi_100nodes_network.node[13].core_layer 	slots_sent[face$o[4]->node[78]] 	23615924
scalar barabasi_100nodes_network.node[13].content_store 	p_hit[13] 	0.12068809824815
scalar barabasi_100nodes_network.node[13].content_store 	hits[13] 	10692
scalar barabasi_100nodes_network.node[13].content_store 	misses[13] 	77900
scalar barabasi_100nodes_network.node[13].content_store 	decision_yes[13] 	31666
scalar barabasi_100nodes_network.node[13].content_store 	decision_no[13] 	26106
scalar barabasi_100nodes_network.node[13].content_store 	decision_ratio[13] 	0.54812019663505
scalar barabasi_100nodes_network.node[13].proactive_component 	hdistance[13].proactive_component 	4.2407917874625
scalar barabasi_100nodes_network.node[13].proactive_component 	downloads[13].proactive_component 	84164
scalar barabasi_100nodes_network.node[13].proactive_component 	avg_time[13].proactive_component 	0
scalar barabasi_100nodes_network.node[14].core_layer 	interests[14] 	21630
scalar barabasi_100nodes_network.node[14].core_layer 	data[14] 	12615
scalar barabasi_100nodes_network.node[14].core_layer 	slots_sent[face$o[1]->client[14]] 	13183078
scalar barabasi_100nodes_network.node[14].core_layer 	slots_sent[face$o[2]->node[8]] 	0
scalar barabasi_100nodes_network.node[14].content_store 	p_hit[14] 	0.41678224687933
scalar barabasi_100nodes_network.node[14].content_store 	hits[14] 	9015
scalar barabasi_100nodes_network.node[14].content_store 	misses[14] 	12615
scalar barabasi_100nodes_network.node[14].content_store 	decision_yes[14] 	7217
scalar barabasi_100nodes_network.node[14].content_store 	decision_no[14] 	5398
scalar barabasi_100nodes_network.node[14].content_store 	decision_ratio[14] 	0.57209671026556
scalar barabasi_100nodes_network.node[14].proactive_component 	hdistance[14].proactive_component 	5.2325259515571
scalar barabasi_100nodes_network.node[14].proactive_component 	downloads[14].proactive_component 	17340
scalar barabasi_100nodes_network.node[14].proactive_component 	avg_time[14].proactive_component 	0
scalar barabasi_100nodes_network.node[15].core_layer 	interests[15] 	469158
scalar barabasi_100nodes_network.node[15].core_layer 	repo_load[15] 	431892
scalar barabasi_100nodes_network.node[15].core_layer 	data[15] 	23847
scalar barabasi_100nodes_network.node[15].core_layer 	slots_sent[face$o[1]->client[15]] 	8942960
scalar barabasi_100nodes_network.node[15].core_layer 	slots_sent[face$o[2]->node[0]] 	173838835
scalar barabasi_100nodes_network.node[15].core_layer 	slots_sent[face$o[3]->node[40]] 	8980637
scalar barabasi_100nodes_network.node[15].core_layer 	slots_sent[face$o[4]->node[56]] 	6505968
scalar barabasi_100nodes_network.node[15].content_store 	p_hit[15] 	0.014679489638885
scalar barabasi_100nodes_network.node[15].content_store 	hits[15] 	6887
scalar barabasi_100nodes_network.node[15].content_store 	misses[15] 	462271
scalar barabasi_100nodes_network.node[15].content_store 	decision_yes[15] 	13136
scalar barabasi_100nodes_network.node[15].content_store 	decision_no[15] 	442603
scalar barabasi_100nodes_network.node[15].content_store 	decision_ratio[15] 	0.028823515213752
scalar barabasi_100nodes_network.node[15].proactive_component 	hdistance[15].proactive_component 	1.2024795028295
scalar barabasi_100nodes_network.node[15].proactive_component 	downloads[15].proactive_component 	503972
scalar barabasi_100nodes_network.node[15].proactive_component 	avg_time[15].proactive_component 	0
scalar barabasi_100nodes_network.node[16].core_layer 	interests[16] 	128496
scalar barabasi_100nodes_network.node[16].core_layer 	data[16] 	85170
scalar barabasi_100nodes_network.node[16].core_layer 	slots_sent[face$o[1]->client[16]] 	12428773
scalar barabasi_100nodes_network.node[16].core_layer 	slots_sent[face$o[2]->node[2]] 	0
scalar barabasi_100nodes_network.node[16].core_layer 	slots_sent[face$o[3]->node[19]] 	42057409
scalar barabasi_100nodes_network.node[16].core_layer 	slots_sent[face$o[4]->node[20]] 	9104444
scalar barabasi_100nodes_network.node[16].content_store 	p_hit[16] 	0.084562943593575
scalar barabasi_100nodes_network.node[16].content_store 	hits[16] 	10866
scalar barabasi_100nodes_network.node[16].content_store 	misses[16] 	117630
scalar barabasi_100nodes_network.node[16].content_store 	decision_yes[16] 	46511
scalar barabasi_100nodes_network.node[16].content_store 	decision_no[16] 	38659
scalar barabasi_100nodes_network.node[16].content_store 	decision_ratio[16] 	0.5460960432077
scalar barabasi_100nodes_network.node[16].proactive_component 	hdistance[16].proactive_component 	4.2322800123411
scalar barabasi_100nodes_network.node[16].proactive_component 	downloads[16].proactive_component 	123166
scalar barabasi_100nodes_network.node[16].proactive_component 	avg_time[16].proactive_component 	0
scalar barabasi_100nodes_network.node[17].core_layer 	interests[17] 	21621
scalar barabasi_100nodes_network.node[17].core_layer 	data[17] 	12775
scalar barabasi_100nodes_network.node[17].core_layer 	slots_sent[face$o[1]->client[17]] 	13020663
scalar barabasi_100nodes_network.node[17].core_layer 	slots_sent[face$o[2]->node[8]] 	0
scalar barabasi_100nodes_network.node[17].content_store 	p_hit[17] 	0.4091392627538
scalar barabasi_100nodes_network.node[17].content_store 	hits[17] 	8846
scalar barabasi_100nodes_network.node[17].content_store 	misses[17] 	12775
scalar barabasi_100nodes_network.node[17].content_store 	decision_yes[17] 	7309
scalar barabasi_100nodes_network.node[17].content_store 	decision_no[17] 	5466
scalar barabasi_100nodes_network.node[17].content_store 	decision_ratio[17] 	0.57213307240705
scalar barabasi_100nodes_network.node[17].proactive_component 	hdistance[17].proactive_component 	5.2345250952083
scalar barabasi_100nodes_network.node[17].proactive_component 	downloads[17].proactive_component 	17593
scalar barabasi_100nodes_network.node[17].proactive_component 	avg_time[17].proactive_component 	0
scalar barabasi_100nodes_network.node[18].core_layer 	interests[18] 	80471
scalar barabasi_100nodes_network.node[18].core_layer 	repo_load[18] 	23070
scalar barabasi_100nodes_network.node[18].core_layer 	data[18] 	36131
scalar barabasi_100nodes_network.node[18].core_layer 	slots_sent[face$o[1]->client[18]] 	10038539
scalar barabasi_100nodes_network.node[18].core_layer 	slots_sent[face$o[2]->node[2]] 	0
scalar barabasi_100nodes_network.node[18].core_layer 	slots_sent[face$o[3]->node[53]] 	8772709
scalar barabasi_100nodes_network.node[18].core_layer 	slots_sent[face$o[4]->node[68]] 	9007438
scalar barabasi_100nodes_network.node[18].core_layer 	slots_sent[face$o[5]->node[72]] 	9077057
scalar barabasi_100nodes_network.node[18].content_store 	p_hit[18] 	0.11269898472742
scalar barabasi_100nodes_network.node[18].content_store 	hits[18] 	9069
scalar barabasi_100nodes_network.node[18].content_store 	misses[18] 	71402
scalar barabasi_100nodes_network.node[18].content_store 	decision_yes[18] 	19482
scalar barabasi_100nodes_network.node[18].content_store 	decision_no[18] 	39719
scalar barabasi_100nodes_network.node[18].content_store 	decision_ratio[18] 	0.32908227901556
scalar barabasi_100nodes_network.node[18].proactive_component 	hdistance[18].proactive_component 	3.1243775709028
scalar barabasi_100nodes_network.node[18].proactive_component 	downloads[18].proactive_component 	83142
scalar barabasi_100nodes_network.node[18].proactive_component 	avg_time[18].proactive_component 	0
scalar barabasi_100nodes_network.node[19].core_layer 	interests[19] 	93403
scalar barabasi_100nodes_network.node[19].core_layer 	data[19] 	60707
scalar barabasi_100nodes_network.node[19].core_layer 	slots_sent[face$o[1]->client[19]] 	12853604
scalar barabasi_100nodes_network.node[19].core_layer 	slots_sent[face$o[2]->node[16]] 	0
scalar barabasi_100nodes_network.node[19].core_layer 	slots_sent[face$o[3]->node[63]] 	8772624
scalar barabasi_100nodes_network.node[19].core_layer 	slots_sent[face$o[4]->node[70]] 	8981182
scalar barabasi_100nodes_network.node[19].core_layer 	slots_sent[face$o[5]->node[80]] 	9005154
scalar barabasi_100nodes_network.node[19].core_layer 	slots_sent[face$o[6]->node[89]] 	9115417
scalar barabasi_100nodes_network.node[19].content_store 	p_hit[19] 	0.12394676830509
scalar barabasi_100nodes_network.node[19].content_store 	hits[19] 	11577
scalar barabasi_100nodes_network.node[19].content_store 	misses[19] 	81826
scalar barabasi_100nodes_network.node[19].content_store 	decision_yes[19] 	33727
scalar barabasi_100nodes_network.node[19].content_store 	decision_no[19] 	26980
scalar barabasi_100nodes_network.node[19].content_store 	decision_ratio[19] 	0.5555701978355
scalar barabasi_100nodes_network.node[19].proactive_component 	hdistance[19].proactive_component 	5.2346214511041
scalar barabasi_100nodes_network.node[19].proactive_component 	downloads[19].proactive_component 	86224
scalar barabasi_100nodes_network.node[19].proactive_component 	avg_time[19].proactive_component 	0
scalar barabasi_100nodes_network.node[20].core_layer 	interests[20] 	21730
scalar barabasi_100nodes_network.node[20].core_layer 	data[20] 	12812
scalar barabasi_100nodes_network.node[20].core_layer 	slots_sent[face$o[1]->client[20]] 	13116590
scalar barabasi_100nodes_network.node[20].core_layer 	slots_sent[face$o[2]->node[16]] 	0
scalar barabasi_100nodes_network.node[20].content_store 	p_hit[20] 	0.41040036815462
scalar barabasi_100nodes_network.node[20].content_store 	hits[20] 	8918
scalar barabasi_100nodes_network.node[20].content_store 	misses[20] 	12812
scalar barabasi_100nodes_network.node[20].content_store 	decision_yes[20] 	7332
scalar barabasi_100nodes_network.node[20].content_store 	decision_no[20] 	5480
scalar barabasi_100nodes_network.node[20].content_store 	decision_ratio[20] 	0.5722759912582
scalar barabasi_100nodes_network.node[20].proactive_component 	hdistance[20].proactive_component 	5.2294453973699
scalar barabasi_100nodes_network.node[20].proactive_component 	downloads[20].proactive_component 	17490
scalar barabasi_100nodes_network.node[20].proactive_component 	avg_time[20].proactive_component 	0
scalar barabasi_100nodes_network.node[21].core_layer 	interests[21] 	48070
scalar barabasi_100nodes_network.node[21].core_layer 	data[21] 	30704
scalar barabasi_100nodes_network.node[21].core_layer 	slots_sent[face$o[1]->client[21]] 	12572520
scalar barabasi_100nodes_network.node[21].core_layer 	slots_sent[face$o[2]->node[0]] 	0
scalar barabasi_100nodes_network.node[21].core_layer 	slots_sent[face$o[3]->node[24]] 	6332700
scalar barabasi_100nodes_network.node[21].core_layer 	slots_sent[face$o[4]->node[57]] 	6349866
scalar barabasi_100nodes_network.node[21].content_store 	p_hit[21] 	0.19868941127522
scalar barabasi_100nodes_network.node[21].content_store 	hits[21] 	9551
scalar barabasi_100nodes_network.node[21].content_store 	misses[21] 	38519
scalar barabasi_100nodes_network.node[21].content_store 	decision_yes[21] 	16898
scalar barabasi_100nodes_network.node[21].content_store 	decision_no[21] 	13806
scalar barabasi_100nodes_network.node[21].content_store 	decision_ratio[21] 	0.55035174570089
scalar barabasi_100nodes_network.node[21].proactive_component 	hdistance[21].proactive_component 	3.7266821860104
scalar barabasi_100nodes_network.node[21].proactive_component 	downloads[21].proactive_component 	45105
scalar barabasi_100nodes_network.node[21].proactive_component 	avg_time[21].proactive_component 	0
scalar barabasi_100nodes_network.node[22].core_layer 	interests[22] 	24461
scalar barabasi_100nodes_network.node[22].core_layer 	repo_load[22] 	8496
scalar barabasi_100nodes_network.node[22].core_layer 	data[22] 	9168
scalar barabasi_100nodes_network.node[22].core_layer 	slots_sent[face$o[1]->client[22]] 	9952405
scalar barabasi_100nodes_network.node[22].core_layer 	slots_sent[face$o[2]->node[0]] 	0
scalar barabasi_100nodes_network.node[22].content_store 	p_hit[22] 	0.27787089652917
scalar barabasi_100nodes_network.node[22].content_store 	hits[22] 	6797
scalar barabasi_100nodes_network.node[22].content_store 	misses[22] 	17664
scalar barabasi_100nodes_network.node[22].content_store 	decision_yes[22] 	5093
scalar barabasi_100nodes_network.node[22].content_store 	decision_no[22] 	12571
scalar barabasi_100nodes_network.node[22].content_store 	decision_ratio[22] 	0.28832653985507
scalar barabasi_100nodes_network.node[22].proactive_component 	hdistance[22].proactive_component 	2.4695710505721
scalar barabasi_100nodes_network.node[22].proactive_component 	downloads[22].proactive_component 	26833
scalar barabasi_100nodes_network.node[22].proactive_component 	avg_time[22].proactive_component 	0
scalar barabasi_100nodes_network.node[23].core_layer 	interests[23] 	123459
scalar barabasi_100nodes_network.node[23].core_layer 	data[23] 	80743
scalar barabasi_100nodes_network.node[23].core_layer 	slots_sent[face$o[1]->client[23]] 	12656118
scalar barabasi_100nodes_network.node[23].core_layer 	slots_sent[face$o[2]->node[7]] 	0
scalar barabasi_100nodes_network.node[23].core_layer 	slots_sent[face$o[3]->node[46]] 	17686950
scalar barabasi_100nodes_network.node[23].core_layer 	slots_sent[face$o[4]->node[47]] 	6390748
scalar barabasi_100nodes_network.node[23].core_layer 	slots_sent[face$o[5]->node[51]] 	8837777
scalar barabasi_100nodes_network.node[23].core_layer 	slots_sent[face$o[6]->node[83]] 	8942038
scalar barabasi_100nodes_network.node[23].core_layer 	slots_sent[face$o[7]->node[86]] 	9248488
scalar barabasi_100nodes_network.node[23].content_store 	p_hit[23] 	0.10120768838238
scalar barabasi_100nodes_network.node[23].content_store 	hits[23] 	12495
scalar barabasi_100nodes_network.node[23].content_store 	misses[23] 	110964
scalar barabasi_100nodes_network.node[23].content_store 	decision_yes[23] 	44792
scalar barabasi_100nodes_network.node[23].content_store 	decision_no[23] 	35951
scalar barabasi_100nodes_network.node[23].content_store 	decision_ratio[23] 	0.55474777999331
scalar barabasi_100nodes_network.node[23].proactive_component 	hdistance[23].proactive_component 	5.2411131371017
scalar barabasi_100nodes_network.node[23].proactive_component 	downloads[23].proactive_component 	115170
scalar barabasi_100nodes_network.node[23].proactive_component 	avg_time[23].proactive_component 	0
scalar barabasi_100nodes_network.node[24].core_layer 	interests[24] 	24272
scalar barabasi_100nodes_network.node[24].core_layer 	repo_load[24] 	8516
scalar barabasi_100nodes_network.node[24].core_layer 	data[24] 	8910
scalar barabasi_100nodes_network.node[24].core_layer 	slots_sent[face$o[1]->client[24]] 	10301512
scalar barabasi_100nodes_network.node[24].core_layer 	slots_sent[face$o[2]->node[21]] 	0
scalar barabasi_100nodes_network.node[24].content_store 	p_hit[24] 	0.28205339485827
scalar barabasi_100nodes_network.node[24].content_store 	hits[24] 	6846
scalar barabasi_100nodes_network.node[24].content_store 	misses[24] 	17426
scalar barabasi_100nodes_network.node[24].content_store 	decision_yes[24] 	5100
scalar barabasi_100nodes_network.node[24].content_store 	decision_no[24] 	12326
scalar barabasi_100nodes_network.node[24].content_store 	decision_ratio[24] 	0.29266613106852
scalar barabasi_100nodes_network.node[24].proactive_component 	hdistance[24].proactive_component 	2.9277960208615
scalar barabasi_100nodes_network.node[24].proactive_component 	downloads[24].proactive_component 	25885
scalar barabasi_100nodes_network.node[24].proactive_component 	avg_time[24].proactive_component 	0
scalar barabasi_100nodes_network.node[25].core_layer 	interests[25] 	40787
scalar barabasi_100nodes_network.node[25].core_layer 	data[25] 	25622
scalar barabasi_100nodes_network.node[25].core_layer 	slots_sent[face$o[1]->client[25]] 	12783415
scalar barabasi_100nodes_network.node[25].core_layer 	slots_sent[face$o[2]->node[2]] 	0
scalar barabasi_100nodes_network.node[25].core_layer 	slots_sent[face$o[3]->node[38]] 	9173162
scalar barabasi_100nodes_network.node[25].content_store 	p_hit[25] 	0.23605560595288
scalar barabasi_100nodes_network.node[25].content_store 	hits[25] 	9628
scalar barabasi_100nodes_network.node[25].content_store 	misses[25] 	31159
scalar barabasi_100nodes_network.node[25].content_store 	decision_yes[25] 	14144
scalar barabasi_100nodes_network.node[25].content_store 	decision_no[25] 	11478
scalar barabasi_100nodes_network.node[25].content_store 	decision_ratio[25] 	0.55202560299742
scalar barabasi_100nodes_network.node[25].proactive_component 	hdistance[25].proactive_component 	4.2320584560222
scalar barabasi_100nodes_network.node[25].proactive_component 	downloads[25].proactive_component 	36814
scalar barabasi_100nodes_network.node[25].proactive_component 	avg_time[25].proactive_component 	0
scalar barabasi_100nodes_network.node[26].core_layer 	interests[26] 	81275
scalar barabasi_100nodes_network.node[26].core_layer 	repo_load[26] 	26011
scalar barabasi_100nodes_network.node[26].core_layer 	data[26] 	35789
scalar barabasi_100nodes_network.node[26].core_layer 	slots_sent[face$o[1]->client[26]] 	9196894
scalar barabasi_100nodes_network.node[26].core_layer 	slots_sent[face$o[2]->node[2]] 	0
scalar barabasi_100nodes_network.node[26].core_layer 	slots_sent[face$o[3]->node[77]] 	17518780
scalar barabasi_100nodes_network.node[26].core_layer 	slots_sent[face$o[4]->node[91]] 	9103269
scalar barabasi_100nodes_network.node[26].content_store 	p_hit[26] 	0.094973854198708
scalar barabasi_100nodes_network.node[26].content_store 	hits[26] 	7719
scalar barabasi_100nodes_network.node[26].content_store 	misses[26] 	73556
scalar barabasi_100nodes_network.node[26].content_store 	decision_yes[26] 	19699
scalar barabasi_100nodes_network.node[26].content_store 	decision_no[26] 	42101
scalar barabasi_100nodes_network.node[26].content_store 	decision_ratio[26] 	0.31875404530744
scalar barabasi_100nodes_network.node[26].proactive_component 	hdistance[26].proactive_component 	3.0113276047008
scalar barabasi_100nodes_network.node[26].proactive_component 	downloads[26].proactive_component 	84837
scalar barabasi_100nodes_network.node[26].proactive_component 	avg_time[26].proactive_component 	0
scalar barabasi_100nodes_network.node[27].core_layer 	interests[27] 	43600
scalar barabasi_100nodes_network.node[27].core_layer 	repo_load[27] 	15405
scalar barabasi_100nodes_network.node[27].core_layer 	data[27] 	17841
scalar barabasi_100nodes_network.node[27].core_layer 	slots_sent[face$o[1]->client[27]] 	9445274
scalar barabasi_100nodes_network.node[27].core_layer 	slots_sent[face$o[2]->node[4]] 	0
scalar barabasi_100nodes_network.node[27].core_layer 	slots_sent[face$o[3]->node[99]] 	8913354
scalar barabasi_100nodes_network.node[27].content_store 	p_hit[27] 	0.15183486238532
scalar barabasi_100nodes_network.node[27].content_store 	hits[27] 	6620
scalar barabasi_100nodes_network.node[27].content_store 	misses[27] 	36980
scalar barabasi_100nodes_network.node[27].content_store 	decision_yes[27] 	10076
scalar barabasi_100nodes_network.node[27].content_store 	decision_no[27] 	23170
scalar barabasi_100nodes_network.node[27].content_store 	decision_ratio[27] 	0.30307405402154
scalar barabasi_100nodes_network.node[27].proactive_component 	hdistance[27].proactive_component 	3.3059302676378
scalar barabasi_100nodes_network.node[27].proactive_component 	downloads[27].proactive_component 	46406
scalar barabasi_100nodes_network.node[27].proactive_component 	avg_time[27].proactive_component 	0
scalar barabasi_100nodes_network.node[28].core_layer 	interests[28] 	463925
scalar barabasi_100nodes_network.node[28].core_layer 	repo_load[28] 	447814
scalar barabasi_100nodes_network.node[28].core_layer 	data[28] 	9302
scalar barabasi_100nodes_network.node[28].core_layer 	slots_sent[face$o[1]->client[28]] 	10043099
scalar barabasi_100nodes_network.node[28].core_layer 	slots_sent[face$o[2]->node[0]] 	185607898
scalar barabasi_100nodes_network.node[28].content_store 	p_hit[28] 	0.014676941315945
scalar barabasi_100nodes_network.node[28].content_store 	hits[28] 	6809
scalar barabasi_100nodes_network.node[28].content_store 	misses[28] 	457116
scalar barabasi_100nodes_network.node[28].content_store 	decision_yes[28] 	5195
scalar barabasi_100nodes_network.node[28].content_store 	decision_no[28] 	451921
scalar barabasi_100nodes_network.node[28].content_store 	decision_ratio[28] 	0.011364730177898
scalar barabasi_100nodes_network.node[28].proactive_component 	hdistance[28].proactive_component 	1.0795593856278
scalar barabasi_100nodes_network.node[28].proactive_component 	downloads[28].proactive_component 	498395
scalar barabasi_100nodes_network.node[28].proactive_component 	avg_time[28].proactive_component 	0
scalar barabasi_100nodes_network.node[29].core_layer 	interests[29] 	22188
scalar barabasi_100nodes_network.node[29].core_layer 	data[29] 	13145
scalar barabasi_100nodes_network.node[29].core_layer 	slots_sent[face$o[1]->client[29]] 	12873644
scalar barabasi_100nodes_network.node[29].core_layer 	slots_sent[face$o[2]->node[2]] 	0
scalar barabasi_100nodes_network.node[29].content_store 	p_hit[29] 	0.40756264647557
scalar barabasi_100nodes_network.node[29].content_store 	hits[29] 	9043
scalar barabasi_100nodes_network.node[29].content_store 	misses[29] 	13145
scalar barabasi_100nodes_network.node[29].content_store 	decision_yes[29] 	7317
scalar barabasi_100nodes_network.node[29].content_store 	decision_no[29] 	5828
scalar barabasi_100nodes_network.node[29].content_store 	decision_ratio[29] 	0.55663750475466
scalar barabasi_100nodes_network.node[29].proactive_component 	hdistance[29].proactive_component 	4.2241707162477
scalar barabasi_100nodes_network.node[29].proactive_component 	downloads[29].proactive_component 	18932
scalar barabasi_100nodes_network.node[29].proactive_component 	avg_time[29].proactive_component 	0
scalar barabasi_100nodes_network.node[30].core_layer 	interests[30] 	39878
scalar barabasi_100nodes_network.node[30].core_layer 	data[30] 	25157
scalar barabasi_100nodes_network.node[30].core_layer 	slots_sent[face$o[1]->client[30]] 	13046666
scalar barabasi_100nodes_network.node[30].core_layer 	slots_sent[face$o[2]->node[4]] 	0
scalar barabasi_100nodes_network.node[30].core_layer 	slots_sent[face$o[3]->node[88]] 	9122488
scalar barabasi_100nodes_network.node[30].content_store 	p_hit[30] 	0.23657154320678
scalar barabasi_100nodes_network.node[30].content_store 	hits[30] 	9434
scalar barabasi_100nodes_network.node[30].content_store 	misses[30] 	30444
scalar barabasi_100nodes_network.node[30].content_store 	decision_yes[30] 	14249
scalar barabasi_100nodes_network.node[30].content_store 	decision_no[30] 	10908
scalar barabasi_100nodes_network.node[30].content_store 	decision_ratio[30] 	0.56640298922765
scalar barabasi_100nodes_network.node[30].proactive_component 	hdistance[30].proactive_component 	5.2290299673342
scalar barabasi_100nodes_network.node[30].proactive_component 	downloads[30].proactive_component 	35205
scalar barabasi_100nodes_network.node[30].proactive_component 	avg_time[30].proactive_component 	0
scalar barabasi_100nodes_network.node[31].core_layer 	interests[31] 	73297
scalar barabasi_100nodes_network.node[31].core_layer 	data[31] 	48231
scalar barabasi_100nodes_network.node[31].core_layer 	slots_sent[face$o[1]->client[31]] 	12873481
scalar barabasi_100nodes_network.node[31].core_layer 	slots_sent[face$o[2]->node[7]] 	0
scalar barabasi_100nodes_network.node[31].core_layer 	slots_sent[face$o[3]->node[65]] 	25394912
scalar barabasi_100nodes_network.node[31].content_store 	p_hit[31] 	0.13104219818001
scalar barabasi_100nodes_network.node[31].content_store 	hits[31] 	9605
scalar barabasi_100nodes_network.node[31].content_store 	misses[31] 	63692
scalar barabasi_100nodes_network.node[31].content_store 	decision_yes[31] 	27072
scalar barabasi_100nodes_network.node[31].content_store 	decision_no[31] 	21159
scalar barabasi_100nodes_network.node[31].content_store 	decision_ratio[31] 	0.56129874976675
scalar barabasi_100nodes_network.node[31].proactive_component 	hdistance[31].proactive_component 	5.23361329731
scalar barabasi_100nodes_network.node[31].proactive_component 	downloads[31].proactive_component 	68104
scalar barabasi_100nodes_network.node[31].proactive_component 	avg_time[31].proactive_component 	0
scalar barabasi_100nodes_network.node[32].core_layer 	interests[32] 	409509
scalar barabasi_100nodes_network.node[32].core_layer 	repo_load[32] 	17646
scalar barabasi_100nodes_network.node[32].core_layer 	data[32] 	247423
scalar barabasi_100nodes_network.node[32].core_layer 	slots_sent[face$o[1]->client[32]] 	9450513
scalar barabasi_100nodes_network.node[32].core_layer 	slots_sent[face$o[2]->node[2]] 	162926604
scalar barabasi_100nodes_network.node[32].core_layer 	slots_sent[face$o[3]->node[43]] 	9335617
scalar barabasi_100nodes_network.node[32].core_layer 	slots_sent[face$o[4]->node[64]] 	6488085
scalar barabasi_100nodes_network.node[32].content_store 	p_hit[32] 	0.066516242622262
scalar barabasi_100nodes_network.node[32].content_store 	hits[32] 	27239
scalar barabasi_100nodes_network.node[32].content_store 	misses[32] 	382270
scalar barabasi_100nodes_network.node[32].content_store 	decision_yes[32] 	124762
scalar barabasi_100nodes_network.node[32].content_store 	decision_no[32] 	140307
scalar barabasi_100nodes_network.node[32].content_store 	decision_ratio[32] 	0.47067744624984
scalar barabasi_100nodes_network.node[32].proactive_component 	hdistance[32].proactive_component 	2.1005437790235
scalar barabasi_100nodes_network.node[32].proactive_component 	downloads[32].proactive_component 	415610
scalar barabasi_100nodes_network.node[32].proactive_component 	avg_time[32].proactive_component 	0
scalar barabasi_100nodes_network.node[33].core_layer 	interests[33] 	21656
scalar barabasi_100nodes_network.node[33].core_layer 	data[33] 	12849
scalar barabasi_100nodes_network.node[33].core_layer 	slots_sent[face$o[1]->client[33]] 	12587900
scalar barabasi_100nodes_network.node[33].core_layer 	slots_sent[face$o[2]->node[2]] 	0
scalar barabasi_100nodes_network.node[33].content_store 	p_hit[33] 	0.40667713335796
scalar barabasi_100nodes_network.node[33].content_store 	hits[33] 	8807
scalar barabasi_100nodes_network.node[33].content_store 	misses[33] 	12849
scalar barabasi_100nodes_network.node[33].content_store 	decision_yes[33] 	7171
scalar barabasi_100nodes_network.node[33].content_store 	decision_no[33] 	5678
scalar barabasi_100nodes_network.node[33].content_store 	decision_ratio[33] 	0.55809790645186
scalar barabasi_100nodes_network.node[33].proactive_component 	hdistance[33].proactive_component 	4.2269889546983
scalar barabasi_100nodes_network.node[33].proactive_component 	downloads[33].proactive_component 	18741
scalar barabasi_100nodes_network.node[33].proactive_component 	avg_time[33].proactive_component 	0
scalar barabasi_100nodes_network.node[34].core_layer 	interests[34] 	21766
scalar barabasi_100nodes_network.node[34].core_layer 	data[34] 	12945
scalar barabasi_100nodes_network.node[34].core_layer 	slots_sent[face$o[1]->client[34]] 	12586698
scalar barabasi_100nodes_network.node[34].core_layer 	slots_sent[face$o[2]->node[2]] 	0
scalar barabasi_100nodes_network.node[34].content_store 	p_hit[34] 	0.40526509234586
scalar barabasi_100nodes_network.node[34].content_store 	hits[34] 	8821
scalar barabasi_100nodes_network.node[34].content_store 	misses[34] 	12945
scalar barabasi_100nodes_network.node[34].content_store 	decision_yes[34] 	7209
scalar barabasi_100nodes_network.node[34].content_store 	decision_no[34] 	5736
scalar barabasi_100nodes_network.node[34].content_store 	decision_ratio[34] 	0.55689455388181
scalar barabasi_100nodes_network.node[34].proactive_component 	hdistance[34].proactive_component 	4.2227926078029
scalar barabasi_100nodes_network.node[34].proactive_component 	downloads[34].proactive_component 	18506
scalar barabasi_100nodes_network.node[34].proactive_component 	avg_time[34].proactive_component 	0
scalar barabasi_100nodes_network.node[35].core_layer 	interests[35] 	40278
scalar barabasi_100nodes_network.node[35].core_layer 	data[35] 	25442
scalar barabasi_100nodes_network.node[35].core_layer 	slots_sent[face$o[1]->client[35]] 	12593495
scalar barabasi_100nodes_network.node[35].core_layer 	slots_sent[face$o[2]->node[5]] 	0
scalar barabasi_100nodes_network.node[35].core_layer 	slots_sent[face$o[3]->node[50]] 	9070669
scalar barabasi_100nodes_network.node[35].content_store 	p_hit[35] 	0.2334276776404
scalar barabasi_100nodes_network.node[35].content_store 	hits[35] 	9402
scalar barabasi_100nodes_network.node[35].content_store 	misses[35] 	30876
scalar barabasi_100nodes_network.node[35].content_store 	decision_yes[35] 	14099
scalar barabasi_100nodes_network.node[35].content_store 	decision_no[35] 	11343
scalar barabasi_100nodes_network.node[35].content_store 	decision_ratio[35] 	0.55416240861567
scalar barabasi_100nodes_network.node[35].proactive_component 	hdistance[35].proactive_component 	4.2192780968007
scalar barabasi_100nodes_network.node[35].proactive_component 	downloads[35].proactive_component 	36570
scalar barabasi_100nodes_network.node[35].proactive_component 	avg_time[35].proactive_component 	0
scalar barabasi_100nodes_network.node[36].core_layer 	interests[36] 	40398
scalar barabasi_100nodes_network.node[36].core_layer 	data[36] 	25494
scalar barabasi_100nodes_network.node[36].core_layer 	slots_sent[face$o[1]->client[36]] 	12603031
scalar barabasi_100nodes_network.node[36].core_layer 	slots_sent[face$o[2]->node[2]] 	0
scalar barabasi_100nodes_network.node[36].core_layer 	slots_sent[face$o[3]->node[75]] 	9055963
scalar barabasi_100nodes_network.node[36].content_store 	p_hit[36] 	0.23285806228031
scalar barabasi_100nodes_network.node[36].content_store 	hits[36] 	9407
scalar barabasi_100nodes_network.node[36].content_store 	misses[36] 	30991
scalar barabasi_100nodes_network.node[36].content_store 	decision_yes[36] 	14086
scalar barabasi_100nodes_network.node[36].content_store 	decision_no[36] 	11408
[...]
scalar barabasi_100nodes_network.client[8] 	downloads[8].real 	16198
scalar barabasi_100nodes_network.client[8] 	avg_time[8].real 	0
scalar barabasi_100nodes_network.client[9] 	hdistance[9].real 	1.5818317385361
scalar barabasi_100nodes_network.client[9] 	downloads[9].real 	16094
scalar barabasi_100nodes_network.client[9] 	avg_time[9].real 	0
scalar barabasi_100nodes_network.client[10] 	hdistance[10].real 	1.5301189730745
scalar barabasi_100nodes_network.client[10] 	downloads[10].real 	15970
scalar barabasi_100nodes_network.client[10] 	avg_time[10].real 	0
scalar barabasi_100nodes_network.client[11] 	hdistance[11].real 	1.4651657285804
scalar barabasi_100nodes_network.client[11] 	downloads[11].real 	15990
scalar barabasi_100nodes_network.client[11] 	avg_time[11].real 	0
scalar barabasi_100nodes_network.client[12] 	hdistance[12].real 	1.9941468940777
scalar barabasi_100nodes_network.client[12] 	downloads[12].real 	15889
scalar barabasi_100nodes_network.client[12] 	avg_time[12].real 	0
scalar barabasi_100nodes_network.client[13] 	hdistance[13].real 	1.7423747612299
scalar barabasi_100nodes_network.client[13] 	downloads[13].real 	16229
scalar barabasi_100nodes_network.client[13] 	avg_time[13].real 	0
scalar barabasi_100nodes_network.client[14] 	hdistance[14].real 	1.9470798422868
scalar barabasi_100nodes_network.client[14] 	downloads[14].real 	16232
scalar barabasi_100nodes_network.client[14] 	avg_time[14].real 	0
scalar barabasi_100nodes_network.client[15] 	hdistance[15].real 	1.4700374531835
scalar barabasi_100nodes_network.client[15] 	downloads[15].real 	16020
scalar barabasi_100nodes_network.client[15] 	avg_time[15].real 	0
scalar barabasi_100nodes_network.client[16] 	hdistance[16].real 	1.8122318911631
scalar barabasi_100nodes_network.client[16] 	downloads[16].real 	16318
scalar barabasi_100nodes_network.client[16] 	avg_time[16].real 	0
scalar barabasi_100nodes_network.client[17] 	hdistance[17].real 	1.9843392138657
scalar barabasi_100nodes_network.client[17] 	downloads[17].real 	16155
scalar barabasi_100nodes_network.client[17] 	avg_time[17].real 	0
scalar barabasi_100nodes_network.client[18] 	hdistance[18].real 	1.532776066872
scalar barabasi_100nodes_network.client[18] 	downloads[18].real 	15911
scalar barabasi_100nodes_network.client[18] 	avg_time[18].real 	0
scalar barabasi_100nodes_network.client[19] 	hdistance[19].real 	2.1616686007451
scalar barabasi_100nodes_network.client[19] 	downloads[19].real 	16373
scalar barabasi_100nodes_network.client[19] 	avg_time[19].real 	0
scalar barabasi_100nodes_network.client[20] 	hdistance[20].real 	1.9725538461538
scalar barabasi_100nodes_network.client[20] 	downloads[20].real 	16250
scalar barabasi_100nodes_network.client[20] 	avg_time[20].real 	0
scalar barabasi_100nodes_network.client[21] 	hdistance[21].real 	1.5195372592456
scalar barabasi_100nodes_network.client[21] 	downloads[21].real 	16251
scalar barabasi_100nodes_network.client[21] 	avg_time[21].real 	0
scalar barabasi_100nodes_network.client[22] 	hdistance[22].real 	1.3697484198785
scalar barabasi_100nodes_network.client[22] 	downloads[22].real 	16138
scalar barabasi_100nodes_network.client[22] 	avg_time[22].real 	0
scalar barabasi_100nodes_network.client[23] 	hdistance[23].real 	2.148470529719
scalar barabasi_100nodes_network.client[23] 	downloads[23].real 	16084
scalar barabasi_100nodes_network.client[23] 	avg_time[23].real 	0
scalar barabasi_100nodes_network.client[24] 	hdistance[24].real 	1.5978770673908
scalar barabasi_100nodes_network.client[24] 	downloads[24].real 	16204
scalar barabasi_100nodes_network.client[24] 	avg_time[24].real 	0
scalar barabasi_100nodes_network.client[25] 	hdistance[25].real 	1.70139143171
scalar barabasi_100nodes_network.client[25] 	downloads[25].real 	16386
scalar barabasi_100nodes_network.client[25] 	avg_time[25].real 	0
scalar barabasi_100nodes_network.client[26] 	hdistance[26].real 	1.5782126310656
scalar barabasi_100nodes_network.client[26] 	downloads[26].real 	16404
scalar barabasi_100nodes_network.client[26] 	avg_time[26].real 	0
scalar barabasi_100nodes_network.client[27] 	hdistance[27].real 	1.783977460648
scalar barabasi_100nodes_network.client[27] 	downloads[27].real 	16327
scalar barabasi_100nodes_network.client[27] 	avg_time[27].real 	0
scalar barabasi_100nodes_network.client[28] 	hdistance[28].real 	1.3765615337044
scalar barabasi_100nodes_network.client[28] 	downloads[28].real 	16170
scalar barabasi_100nodes_network.client[28] 	avg_time[28].real 	0
scalar barabasi_100nodes_network.client[29] 	hdistance[29].real 	1.6523227383863
scalar barabasi_100nodes_network.client[29] 	downloads[29].real 	16360
scalar barabasi_100nodes_network.client[29] 	avg_time[29].real 	0
scalar barabasi_100nodes_network.client[30] 	hdistance[30].real 	2.0463263680372
scalar barabasi_100nodes_network.client[30] 	downloads[30].real 	16319
scalar barabasi_100nodes_network.client[30] 	avg_time[30].real 	0
scalar barabasi_100nodes_network.client[31] 	hdistance[31].real 	2.0972230773967
scalar barabasi_100nodes_network.client[31] 	downloads[31].real 	16241
scalar barabasi_100nodes_network.client[31] 	avg_time[31].real 	0
scalar barabasi_100nodes_network.client[32] 	hdistance[32].real 	1.4561056920608
scalar barabasi_100nodes_network.client[32] 	downloads[32].real 	16198
scalar barabasi_100nodes_network.client[32] 	avg_time[32].real 	0
scalar barabasi_100nodes_network.client[33] 	hdistance[33].real 	1.6557766929528
scalar barabasi_100nodes_network.client[33] 	downloads[33].real 	15978
scalar barabasi_100nodes_network.client[33] 	avg_time[33].real 	0
scalar barabasi_100nodes_network.client[34] 	hdistance[34].real 	1.6573300062383
scalar barabasi_100nodes_network.client[34] 	downloads[34].real 	16030
scalar barabasi_100nodes_network.client[34] 	avg_time[34].real 	0
scalar barabasi_100nodes_network.client[35] 	hdistance[35].real 	1.7458317895517
scalar barabasi_100nodes_network.client[35] 	downloads[35].real 	16194
scalar barabasi_100nodes_network.client[35] 	avg_time[35].real 	0
scalar barabasi_100nodes_network.client[36] 	hdistance[36].real 	1.7101333004197
scalar barabasi_100nodes_network.client[36] 	downloads[36].real 	16204
scalar barabasi_100nodes_network.client[36] 	avg_time[36].real 	0
scalar barabasi_100nodes_network.client[37] 	hdistance[37].real 	1.4715178243293
scalar barabasi_100nodes_network.client[37] 	downloads[37].real 	16326
scalar barabasi_100nodes_network.client[37] 	avg_time[37].real 	0
scalar barabasi_100nodes_network.client[38] 	hdistance[38].real 	1.995635603639
scalar barabasi_100nodes_network.client[38] 	downloads[38].real 	16268
scalar barabasi_100nodes_network.client[38] 	avg_time[38].real 	0
scalar barabasi_100nodes_network.client[39] 	hdistance[39].real 	2.0185416406543
scalar barabasi_100nodes_network.client[39] 	downloads[39].real 	16018
scalar barabasi_100nodes_network.client[39] 	avg_time[39].real 	0
scalar barabasi_100nodes_network.client[40] 	hdistance[40].real 	1.5876549300117
scalar barabasi_100nodes_network.client[40] 	downloads[40].real 	16217
scalar barabasi_100nodes_network.client[40] 	avg_time[40].real 	0
scalar barabasi_100nodes_network.client[41] 	hdistance[41].real 	1.5460160592959
scalar barabasi_100nodes_network.client[41] 	downloads[41].real 	16190
scalar barabasi_100nodes_network.client[41] 	avg_time[41].real 	0
scalar barabasi_100nodes_network.client[42] 	hdistance[42].real 	1.7156736149542
scalar barabasi_100nodes_network.client[42] 	downloads[42].real 	16263
scalar barabasi_100nodes_network.client[42] 	avg_time[42].real 	0
scalar barabasi_100nodes_network.client[43] 	hdistance[43].real 	1.5436360309813
scalar barabasi_100nodes_network.client[43] 	downloads[43].real 	16397
scalar barabasi_100nodes_network.client[43] 	avg_time[43].real 	0
scalar barabasi_100nodes_network.client[44] 	hdistance[44].real 	1.5088337039783
scalar barabasi_100nodes_network.client[44] 	downloads[44].real 	16188
scalar barabasi_100nodes_network.client[44] 	avg_time[44].real 	0
scalar barabasi_100nodes_network.client[45] 	hdistance[45].real 	1.6623441087051
scalar barabasi_100nodes_network.client[45] 	downloads[45].real 	16117
scalar barabasi_100nodes_network.client[45] 	avg_time[45].real 	0
scalar barabasi_100nodes_network.client[46] 	hdistance[46].real 	2.3857730818846
scalar barabasi_100nodes_network.client[46] 	downloads[46].real 	16279
scalar barabasi_100nodes_network.client[46] 	avg_time[46].real 	0
scalar barabasi_100nodes_network.client[47] 	hdistance[47].real 	1.9257431926055
scalar barabasi_100nodes_network.client[47] 	downloads[47].real 	16012
scalar barabasi_100nodes_network.client[47] 	avg_time[47].real 	0
scalar barabasi_100nodes_network.client[48] 	hdistance[48].real 	1.6961332836006
scalar barabasi_100nodes_network.client[48] 	downloads[48].real 	16086
scalar barabasi_100nodes_network.client[48] 	avg_time[48].real 	0
scalar barabasi_100nodes_network.client[49] 	hdistance[49].real 	1.9463149440909
scalar barabasi_100nodes_network.client[49] 	downloads[49].real 	16187
scalar barabasi_100nodes_network.client[49] 	avg_time[49].real 	0
scalar barabasi_100nodes_network.client[50] 	hdistance[50].real 	1.9856721190505
scalar barabasi_100nodes_network.client[50] 	downloads[50].real 	16262
scalar barabasi_100nodes_network.client[50] 	avg_time[50].real 	0
scalar barabasi_100nodes_network.client[51] 	hdistance[51].real 	2.2864092808582
scalar barabasi_100nodes_network.client[51] 	downloads[51].real 	16033
scalar barabasi_100nodes_network.client[51] 	avg_time[51].real 	0
scalar barabasi_100nodes_network.client[52] 	hdistance[52].real 	1.9791254940711
scalar barabasi_100nodes_network.client[52] 	downloads[52].real 	16192
scalar barabasi_100nodes_network.client[52] 	avg_time[52].real 	0
scalar barabasi_100nodes_network.client[53] 	hdistance[53].real 	1.6989606299213
scalar barabasi_100nodes_network.client[53] 	downloads[53].real 	15875
scalar barabasi_100nodes_network.client[53] 	avg_time[53].real 	0
scalar barabasi_100nodes_network.client[54] 	hdistance[54].real 	1.7749767153058
scalar barabasi_100nodes_network.client[54] 	downloads[54].real 	16105
scalar barabasi_100nodes_network.client[54] 	avg_time[54].real 	0
scalar barabasi_100nodes_network.client[55] 	hdistance[55].real 	1.7195671212311
scalar barabasi_100nodes_network.client[55] 	downloads[55].real 	15986
scalar barabasi_100nodes_network.client[55] 	avg_time[55].real 	0
scalar barabasi_100nodes_network.client[56] 	hdistance[56].real 	1.3452418194331
scalar barabasi_100nodes_network.client[56] 	downloads[56].real 	15983
scalar barabasi_100nodes_network.client[56] 	avg_time[56].real 	0
scalar barabasi_100nodes_network.client[57] 	hdistance[57].real 	1.4932360825385
scalar barabasi_100nodes_network.client[57] 	downloads[57].real 	16041
scalar barabasi_100nodes_network.client[57] 	avg_time[57].real 	0
scalar barabasi_100nodes_network.client[58] 	hdistance[58].real 	1.5148207863078
scalar barabasi_100nodes_network.client[58] 	downloads[58].real 	16126
scalar barabasi_100nodes_network.client[58] 	avg_time[58].real 	0
scalar barabasi_100nodes_network.client[59] 	hdistance[59].real 	1.6869710261321
scalar barabasi_100nodes_network.client[59] 	downloads[59].real 	16187
scalar barabasi_100nodes_network.client[59] 	avg_time[59].real 	0
scalar barabasi_100nodes_network.client[60] 	hdistance[60].real 	2.3046836381611
scalar barabasi_100nodes_network.client[60] 	downloads[60].real 	16184
scalar barabasi_100nodes_network.client[60] 	avg_time[60].real 	0
scalar barabasi_100nodes_network.client[61] 	hdistance[61].real 	1.9571559353067
scalar barabasi_100nodes_network.client[61] 	downloads[61].real 	16385
scalar barabasi_100nodes_network.client[61] 	avg_time[61].real 	0
scalar barabasi_100nodes_network.client[62] 	hdistance[62].real 	1.7414874001229
scalar barabasi_100nodes_network.client[62] 	downloads[62].real 	16270
scalar barabasi_100nodes_network.client[62] 	avg_time[62].real 	0
scalar barabasi_100nodes_network.client[63] 	hdistance[63].real 	2.3037664783427
scalar barabasi_100nodes_network.client[63] 	downloads[63].real 	15930
scalar barabasi_100nodes_network.client[63] 	avg_time[63].real 	0
scalar barabasi_100nodes_network.client[64] 	hdistance[64].real 	1.4269979347894
scalar barabasi_100nodes_network.client[64] 	downloads[64].real 	15979
scalar barabasi_100nodes_network.client[64] 	avg_time[64].real 	0
scalar barabasi_100nodes_network.client[65] 	hdistance[65].real 	2.4174842217084
scalar barabasi_100nodes_network.client[65] 	downloads[65].real 	16003
scalar barabasi_100nodes_network.client[65] 	avg_time[65].real 	0
scalar barabasi_100nodes_network.client[66] 	hdistance[66].real 	1.9494326591021
scalar barabasi_100nodes_network.client[66] 	downloads[66].real 	16216
scalar barabasi_100nodes_network.client[66] 	avg_time[66].real 	0
scalar barabasi_100nodes_network.client[67] 	hdistance[67].real 	1.9501085944772
scalar barabasi_100nodes_network.client[67] 	downloads[67].real 	16115
scalar barabasi_100nodes_network.client[67] 	avg_time[67].real 	0
scalar barabasi_100nodes_network.client[68] 	hdistance[68].real 	1.7337445710329
scalar barabasi_100nodes_network.client[68] 	downloads[68].real 	15887
scalar barabasi_100nodes_network.client[68] 	avg_time[68].real 	0
scalar barabasi_100nodes_network.client[69] 	hdistance[69].real 	1.700956494909
scalar barabasi_100nodes_network.client[69] 	downloads[69].real 	16205
scalar barabasi_100nodes_network.client[69] 	avg_time[69].real 	0
scalar barabasi_100nodes_network.client[70] 	hdistance[70].real 	2.3158811093147
scalar barabasi_100nodes_network.client[70] 	downloads[70].real 	16082
scalar barabasi_100nodes_network.client[70] 	avg_time[70].real 	0
scalar barabasi_100nodes_network.client[71] 	hdistance[71].real 	1.8194255292807
scalar barabasi_100nodes_network.client[71] 	downloads[71].real 	16154
scalar barabasi_100nodes_network.client[71] 	avg_time[71].real 	0
scalar barabasi_100nodes_network.client[72] 	hdistance[72].real 	1.6908869247181
scalar barabasi_100nodes_network.client[72] 	downloads[72].real 	16405
scalar barabasi_100nodes_network.client[72] 	avg_time[72].real 	0
scalar barabasi_100nodes_network.client[73] 	hdistance[73].real 	1.5277982779828
scalar barabasi_100nodes_network.client[73] 	downloads[73].real 	16260
scalar barabasi_100nodes_network.client[73] 	avg_time[73].real 	0
scalar barabasi_100nodes_network.client[74] 	hdistance[74].real 	1.4632697718037
scalar barabasi_100nodes_network.client[74] 	downloads[74].real 	15995
scalar barabasi_100nodes_network.client[74] 	avg_time[74].real 	0
scalar barabasi_100nodes_network.client[75] 	hdistance[75].real 	1.9879540400297
scalar barabasi_100nodes_network.client[75] 	downloads[75].real 	16188
scalar barabasi_100nodes_network.client[75] 	avg_time[75].real 	0
scalar barabasi_100nodes_network.client[76] 	hdistance[76].real 	1.8042805888903
scalar barabasi_100nodes_network.client[76] 	downloads[76].real 	16166
scalar barabasi_100nodes_network.client[76] 	avg_time[76].real 	0
scalar barabasi_100nodes_network.client[77] 	hdistance[77].real 	1.7524180379349
scalar barabasi_100nodes_network.client[77] 	downloads[77].real 	15922
scalar barabasi_100nodes_network.client[77] 	avg_time[77].real 	0
scalar barabasi_100nodes_network.client[78] 	hdistance[78].real 	2.1032757884463
scalar barabasi_100nodes_network.client[78] 	downloads[78].real 	16393
scalar barabasi_100nodes_network.client[78] 	avg_time[78].real 	0
scalar barabasi_100nodes_network.client[79] 	hdistance[79].real 	1.6546572394713
scalar barabasi_100nodes_network.client[79] 	downloads[79].real 	16265
scalar barabasi_100nodes_network.client[79] 	avg_time[79].real 	0
scalar barabasi_100nodes_network.client[80] 	hdistance[80].real 	2.3188101703283
scalar barabasi_100nodes_network.client[80] 	downloads[80].real 	16204
scalar barabasi_100nodes_network.client[80] 	avg_time[80].real 	0
scalar barabasi_100nodes_network.client[81] 	hdistance[81].real 	1.9869139171421
scalar barabasi_100nodes_network.client[81] 	downloads[81].real 	16124
scalar barabasi_100nodes_network.client[81] 	avg_time[81].real 	0
scalar barabasi_100nodes_network.client[82] 	hdistance[82].real 	2.6239253704042
scalar barabasi_100nodes_network.client[82] 	downloads[82].real 	16401
scalar barabasi_100nodes_network.client[82] 	avg_time[82].real 	0
scalar barabasi_100nodes_network.client[83] 	hdistance[83].real 	2.2950606585788
scalar barabasi_100nodes_network.client[83] 	downloads[83].real 	16156
scalar barabasi_100nodes_network.client[83] 	avg_time[83].real 	0
scalar barabasi_100nodes_network.client[84] 	hdistance[84].real 	2.0353591846881
scalar barabasi_100nodes_network.client[84] 	downloads[84].real 	16092
scalar barabasi_100nodes_network.client[84] 	avg_time[84].real 	0
scalar barabasi_100nodes_network.client[85] 	hdistance[85].real 	1.9682481528974
scalar barabasi_100nodes_network.client[85] 	downloads[85].real 	16377
scalar barabasi_100nodes_network.client[85] 	avg_time[85].real 	0
scalar barabasi_100nodes_network.client[86] 	hdistance[86].real 	2.3335780265492
scalar barabasi_100nodes_network.client[86] 	downloads[86].real 	16347
scalar barabasi_100nodes_network.client[86] 	avg_time[86].real 	0
scalar barabasi_100nodes_network.client[87] 	hdistance[87].real 	2.2998258273202
scalar barabasi_100nodes_network.client[87] 	downloads[87].real 	16076
scalar barabasi_100nodes_network.client[87] 	avg_time[87].real 	0
scalar barabasi_100nodes_network.client[88] 	hdistance[88].real 	2.3248211201579
scalar barabasi_100nodes_network.client[88] 	downloads[88].real 	16212
scalar barabasi_100nodes_network.client[88] 	avg_time[88].real 	0
scalar barabasi_100nodes_network.client[89] 	hdistance[89].real 	2.3471048899303
scalar barabasi_100nodes_network.client[89] 	downloads[89].real 	16217
scalar barabasi_100nodes_network.client[89] 	avg_time[89].real 	0
scalar barabasi_100nodes_network.client[90] 	hdistance[90].real 	1.7239927085298
scalar barabasi_100nodes_network.client[90] 	downloads[90].real 	15909
scalar barabasi_100nodes_network.client[90] 	avg_time[90].real 	0
scalar barabasi_100nodes_network.client[91] 	hdistance[91].real 	1.6826218197499
scalar barabasi_100nodes_network.client[91] 	downloads[91].real 	16233
scalar barabasi_100nodes_network.client[91] 	avg_time[91].real 	0
scalar barabasi_100nodes_network.client[92] 	hdistance[92].real 	2.2964378158511
scalar barabasi_100nodes_network.client[92] 	downloads[92].real 	16226
scalar barabasi_100nodes_network.client[92] 	avg_time[92].real 	0
scalar barabasi_100nodes_network.client[93] 	hdistance[93].real 	1.4787010742067
scalar barabasi_100nodes_network.client[93] 	downloads[93].real 	16198
scalar barabasi_100nodes_network.client[93] 	avg_time[93].real 	0
scalar barabasi_100nodes_network.client[94] 	hdistance[94].real 	1.7767584097859
scalar barabasi_100nodes_network.client[94] 	downloads[94].real 	16350
scalar barabasi_100nodes_network.client[94] 	avg_time[94].real 	0
scalar barabasi_100nodes_network.client[95] 	hdistance[95].real 	2.6500123977188
scalar barabasi_100nodes_network.client[95] 	downloads[95].real 	16132
scalar barabasi_100nodes_network.client[95] 	avg_time[95].real 	0
scalar barabasi_100nodes_network.client[96] 	hdistance[96].real 	2.070029563932
scalar barabasi_100nodes_network.client[96] 	downloads[96].real 	16236
scalar barabasi_100nodes_network.client[96] 	avg_time[96].real 	0
scalar barabasi_100nodes_network.client[97] 	hdistance[97].real 	2.0654699698777
scalar barabasi_100nodes_network.client[97] 	downloads[97].real 	16267
scalar barabasi_100nodes_network.client[97] 	avg_time[97].real 	0
scalar barabasi_100nodes_network.client[98] 	hdistance[98].real 	2.623692077728
scalar barabasi_100nodes_network.client[98] 	downloads[98].real 	16056
scalar barabasi_100nodes_network.client[98] 	avg_time[98].real 	0
scalar barabasi_100nodes_network.client[99] 	hdistance[99].real 	1.9413471241171
scalar barabasi_100nodes_network.client[99] 	downloads[99].real 	15856
scalar barabasi_100nodes_network.client[99] 	avg_time[99].real 	0
