version 2
run General-1-20150722-13:15:17-32159
attr C 1e4
attr D lce
attr F spr
attr R always_highq
attr a 1
attr brates 0.3_0.7_1.5_2.5_3.5
attr configname General
attr ctlg 1e6
attr datetime 20150722-13:15:17
attr experiment General
attr inifile omnetpp.ini
attr iterationvars "$net=barabasi_100nodes, $rep=1, $lambda=100, $a=1, $ctlg=1e6, $brates=0.3_0.7_1.5_2.5_3.5, $F=spr, $ttl=1000, $D=lce, $R=always_highq, $C=1e4, $window=60, $variance=0.05, $mytime=180000"
attr iterationvars2 "$net=barabasi_100nodes, $rep=1, $lambda=100, $a=1, $ctlg=1e6, $brates=0.3_0.7_1.5_2.5_3.5, $F=spr, $ttl=1000, $D=lce, $R=always_highq, $C=1e4, $window=60, $variance=0.05, $mytime=180000, $repetition=0"
attr lambda 100
attr measurement "$net=barabasi_100nodes, $rep=1, $lambda=100, $a=1, $ctlg=1e6, $brates=0.3_0.7_1.5_2.5_3.5, $F=spr, $ttl=1000, $D=lce, $R=always_highq, $C=1e4, $window=60, $variance=0.05, $mytime=180000"
attr mytime 180000
attr net barabasi_100nodes
attr network networks.${net=barabasi_100nodes}_network
attr processid 32159
attr rep 1
attr repetition 0
attr replication #0
attr resultdir results
attr runnumber 1
attr seedset 1
attr ttl 1000
attr variance 0.05
attr window 60

scalar . 	C 	1e4
scalar . 	a 	1
scalar . 	ctlg 	1e6
scalar . 	lambda 	100
scalar . 	mytime 	180000
scalar . 	rep 	1
scalar . 	ttl 	1000
scalar . 	variance 	0.05
scalar . 	window 	60
scalar barabasi_100nodes_network.content_distribution 	repo-0 	46
scalar barabasi_100nodes_network.content_distribution 	repo-1 	55
scalar barabasi_100nodes_network.content_distribution 	repo-2 	69
scalar barabasi_100nodes_network.content_distribution 	repo-3 	1
scalar barabasi_100nodes_network.content_distribution 	repo-4 	87
scalar barabasi_100nodes_network.content_distribution 	repo-5 	72
scalar barabasi_100nodes_network.content_distribution 	repo-6 	50
scalar barabasi_100nodes_network.content_distribution 	repo-7 	9
scalar barabasi_100nodes_network.content_distribution 	repo-8 	58
scalar barabasi_100nodes_network.content_distribution 	repo-9 	94
scalar barabasi_100nodes_network.content_distribution 	repo-10 	57
scalar barabasi_100nodes_network.content_distribution 	repo-11 	36
scalar barabasi_100nodes_network.content_distribution 	repo-12 	44
scalar barabasi_100nodes_network.content_distribution 	repo-13 	38
scalar barabasi_100nodes_network.content_distribution 	repo-14 	52
scalar barabasi_100nodes_network.content_distribution 	repo-15 	3
scalar barabasi_100nodes_network.content_distribution 	repo-16 	0
scalar barabasi_100nodes_network.content_distribution 	repo-17 	21
scalar barabasi_100nodes_network.content_distribution 	repo-18 	73
scalar barabasi_100nodes_network.content_distribution 	repo-19 	56
scalar barabasi_100nodes_network.content_distribution 	repo-20 	66
scalar barabasi_100nodes_network.content_distribution 	repo-21 	30
scalar barabasi_100nodes_network.content_distribution 	repo-22 	8
scalar barabasi_100nodes_network.content_distribution 	repo-23 	49
scalar barabasi_100nodes_network.content_distribution 	repo-24 	32
scalar barabasi_100nodes_network.content_distribution 	repo-25 	40
scalar barabasi_100nodes_network.content_distribution 	repo-26 	42
scalar barabasi_100nodes_network.content_distribution 	repo-27 	45
scalar barabasi_100nodes_network.content_distribution 	repo-28 	33
scalar barabasi_100nodes_network.content_distribution 	repo-29 	28
scalar barabasi_100nodes_network.content_distribution 	repo-30 	79
scalar barabasi_100nodes_network.content_distribution 	repo-31 	98
scalar barabasi_100nodes_network.content_distribution 	repo-32 	95
scalar barabasi_100nodes_network.content_distribution 	repo-33 	17
scalar barabasi_100nodes_network.content_distribution 	repo-34 	81
scalar barabasi_100nodes_network.content_distribution 	repo-35 	89
scalar barabasi_100nodes_network.content_distribution 	repo-36 	59
scalar barabasi_100nodes_network.content_distribution 	repo-37 	48
scalar barabasi_100nodes_network.content_distribution 	repo-38 	76
scalar barabasi_100nodes_network.content_distribution 	repo-39 	23
scalar barabasi_100nodes_network.content_distribution 	repo-40 	22
scalar barabasi_100nodes_network.content_distribution 	repo-41 	67
scalar barabasi_100nodes_network.content_distribution 	repo-42 	62
scalar barabasi_100nodes_network.content_distribution 	repo-43 	75
scalar barabasi_100nodes_network.content_distribution 	repo-44 	70
scalar barabasi_100nodes_network.content_distribution 	repo-45 	71
scalar barabasi_100nodes_network.content_distribution 	repo-46 	82
scalar barabasi_100nodes_network.content_distribution 	repo-47 	53
scalar barabasi_100nodes_network.content_distribution 	repo-48 	85
scalar barabasi_100nodes_network.content_distribution 	repo-49 	91
scalar barabasi_100nodes_network.content_distribution 	repo-50 	51
scalar barabasi_100nodes_network.content_distribution 	repo-51 	37
scalar barabasi_100nodes_network.content_distribution 	repo-52 	54
scalar barabasi_100nodes_network.content_distribution 	repo-53 	96
scalar barabasi_100nodes_network.content_distribution 	repo-54 	4
scalar barabasi_100nodes_network.content_distribution 	repo-55 	31
scalar barabasi_100nodes_network.content_distribution 	repo-56 	78
scalar barabasi_100nodes_network.content_distribution 	repo-57 	68
scalar barabasi_100nodes_network.content_distribution 	repo-58 	39
scalar barabasi_100nodes_network.content_distribution 	repo-59 	27
scalar barabasi_100nodes_network.content_distribution 	repo-60 	97
scalar barabasi_100nodes_network.content_distribution 	repo-61 	60
scalar barabasi_100nodes_network.content_distribution 	repo-62 	43
scalar barabasi_100nodes_network.content_distribution 	repo-63 	86
scalar barabasi_100nodes_network.content_distribution 	repo-64 	15
scalar barabasi_100nodes_network.content_distribution 	repo-65 	13
scalar barabasi_100nodes_network.content_distribution 	repo-66 	10
scalar barabasi_100nodes_network.content_distribution 	repo-67 	7
scalar barabasi_100nodes_network.content_distribution 	repo-68 	63
scalar barabasi_100nodes_network.content_distribution 	repo-69 	64
scalar barabasi_100nodes_network.content_distribution 	repo-70 	35
scalar barabasi_100nodes_network.content_distribution 	repo-71 	65
scalar barabasi_100nodes_network.content_distribution 	repo-72 	74
scalar barabasi_100nodes_network.content_distribution 	repo-73 	20
scalar barabasi_100nodes_network.content_distribution 	repo-74 	80
scalar barabasi_100nodes_network.content_distribution 	repo-75 	41
scalar barabasi_100nodes_network.content_distribution 	repo-76 	25
scalar barabasi_100nodes_network.content_distribution 	repo-77 	5
scalar barabasi_100nodes_network.content_distribution 	repo-78 	24
scalar barabasi_100nodes_network.content_distribution 	repo-79 	29
scalar barabasi_100nodes_network.content_distribution 	repo-80 	93
scalar barabasi_100nodes_network.content_distribution 	repo-81 	61
scalar barabasi_100nodes_network.content_distribution 	repo-82 	2
scalar barabasi_100nodes_network.content_distribution 	repo-83 	19
scalar barabasi_100nodes_network.content_distribution 	repo-84 	99
scalar barabasi_100nodes_network.content_distribution 	repo-85 	16
scalar barabasi_100nodes_network.content_distribution 	repo-86 	90
scalar barabasi_100nodes_network.content_distribution 	repo-87 	77
scalar barabasi_100nodes_network.content_distribution 	repo-88 	12
scalar barabasi_100nodes_network.content_distribution 	repo-89 	26
scalar barabasi_100nodes_network.content_distribution 	repo-90 	34
scalar barabasi_100nodes_network.content_distribution 	repo-91 	88
scalar barabasi_100nodes_network.content_distribution 	repo-92 	18
scalar barabasi_100nodes_network.content_distribution 	repo-93 	83
scalar barabasi_100nodes_network.content_distribution 	repo-94 	84
scalar barabasi_100nodes_network.content_distribution 	repo-95 	92
scalar barabasi_100nodes_network.content_distribution 	repo-96 	14
scalar barabasi_100nodes_network.content_distribution 	repo-97 	6
scalar barabasi_100nodes_network.content_distribution 	repo-98 	47
scalar barabasi_100nodes_network.content_distribution 	repo-99 	11
scalar barabasi_100nodes_network.content_distribution 	client-0 	3
scalar barabasi_100nodes_network.content_distribution 	client-1 	71
scalar barabasi_100nodes_network.content_distribution 	client-2 	78
scalar barabasi_100nodes_network.content_distribution 	client-3 	12
scalar barabasi_100nodes_network.content_distribution 	client-4 	7
scalar barabasi_100nodes_network.content_distribution 	client-5 	81
scalar barabasi_100nodes_network.content_distribution 	client-6 	86
scalar barabasi_100nodes_network.content_distribution 	client-7 	80
scalar barabasi_100nodes_network.content_distribution 	client-8 	79
scalar barabasi_100nodes_network.content_distribution 	client-9 	64
scalar barabasi_100nodes_network.content_distribution 	client-10 	10
scalar barabasi_100nodes_network.content_distribution 	client-11 	31
scalar barabasi_100nodes_network.content_distribution 	client-12 	45
scalar barabasi_100nodes_network.content_distribution 	client-13 	39
scalar barabasi_100nodes_network.content_distribution 	client-14 	84
scalar barabasi_100nodes_network.content_distribution 	client-15 	95
scalar barabasi_100nodes_network.content_distribution 	client-16 	48
scalar barabasi_100nodes_network.content_distribution 	client-17 	29
scalar barabasi_100nodes_network.content_distribution 	client-18 	43
scalar barabasi_100nodes_network.content_distribution 	client-19 	0
scalar barabasi_100nodes_network.content_distribution 	client-20 	8
scalar barabasi_100nodes_network.content_distribution 	client-21 	57
scalar barabasi_100nodes_network.content_distribution 	client-22 	38
scalar barabasi_100nodes_network.content_distribution 	client-23 	90
scalar barabasi_100nodes_network.content_distribution 	client-24 	54
scalar barabasi_100nodes_network.content_distribution 	client-25 	24
scalar barabasi_100nodes_network.content_distribution 	client-26 	52
scalar barabasi_100nodes_network.content_distribution 	client-27 	67
scalar barabasi_100nodes_network.content_distribution 	client-28 	44
scalar barabasi_100nodes_network.content_distribution 	client-29 	82
scalar barabasi_100nodes_network.content_distribution 	client-30 	14
scalar barabasi_100nodes_network.content_distribution 	client-31 	49
scalar barabasi_100nodes_network.content_distribution 	client-32 	6
scalar barabasi_100nodes_network.content_distribution 	client-33 	91
scalar barabasi_100nodes_network.content_distribution 	client-34 	60
scalar barabasi_100nodes_network.content_distribution 	client-35 	75
scalar barabasi_100nodes_network.content_distribution 	client-36 	59
scalar barabasi_100nodes_network.content_distribution 	client-37 	32
scalar barabasi_100nodes_network.content_distribution 	client-38 	15
scalar barabasi_100nodes_network.content_distribution 	client-39 	85
scalar barabasi_100nodes_network.content_distribution 	client-40 	62
scalar barabasi_100nodes_network.content_distribution 	client-41 	16
scalar barabasi_100nodes_network.content_distribution 	client-42 	21
scalar barabasi_100nodes_network.content_distribution 	client-43 	70
scalar barabasi_100nodes_network.content_distribution 	client-44 	5
scalar barabasi_100nodes_network.content_distribution 	client-45 	65
scalar barabasi_100nodes_network.content_distribution 	client-46 	30
scalar barabasi_100nodes_network.content_distribution 	client-47 	35
scalar barabasi_100nodes_network.content_distribution 	client-48 	46
scalar barabasi_100nodes_network.content_distribution 	client-49 	55
scalar barabasi_100nodes_network.content_distribution 	client-50 	2
scalar barabasi_100nodes_network.content_distribution 	client-51 	88
scalar barabasi_100nodes_network.content_distribution 	client-52 	41
scalar barabasi_100nodes_network.content_distribution 	client-53 	93
scalar barabasi_100nodes_network.content_distribution 	client-54 	69
scalar barabasi_100nodes_network.content_distribution 	client-55 	94
scalar barabasi_100nodes_network.content_distribution 	client-56 	56
scalar barabasi_100nodes_network.content_distribution 	client-57 	11
scalar barabasi_100nodes_network.content_distribution 	client-58 	22
scalar barabasi_100nodes_network.content_distribution 	client-59 	68
scalar barabasi_100nodes_network.content_distribution 	client-60 	97
scalar barabasi_100nodes_network.content_distribution 	client-61 	37
scalar barabasi_100nodes_network.content_distribution 	client-62 	9
scalar barabasi_100nodes_network.content_distribution 	client-63 	28
scalar barabasi_100nodes_network.content_distribution 	client-64 	83
scalar barabasi_100nodes_network.content_distribution 	client-65 	50
scalar barabasi_100nodes_network.content_distribution 	client-66 	61
scalar barabasi_100nodes_network.content_distribution 	client-67 	26
scalar barabasi_100nodes_network.content_distribution 	client-68 	53
scalar barabasi_100nodes_network.content_distribution 	client-69 	1
scalar barabasi_100nodes_network.content_distribution 	client-70 	73
scalar barabasi_100nodes_network.content_distribution 	client-71 	92
scalar barabasi_100nodes_network.content_distribution 	client-72 	72
scalar barabasi_100nodes_network.content_distribution 	client-73 	40
scalar barabasi_100nodes_network.content_distribution 	client-74 	87
scalar barabasi_100nodes_network.content_distribution 	client-75 	66
scalar barabasi_100nodes_network.content_distribution 	client-76 	42
scalar barabasi_100nodes_network.content_distribution 	client-77 	89
scalar barabasi_100nodes_network.content_distribution 	client-78 	96
scalar barabasi_100nodes_network.content_distribution 	client-79 	47
scalar barabasi_100nodes_network.content_distribution 	client-80 	18
scalar barabasi_100nodes_network.content_distribution 	client-81 	33
scalar barabasi_100nodes_network.content_distribution 	client-82 	17
scalar barabasi_100nodes_network.content_distribution 	client-83 	51
scalar barabasi_100nodes_network.content_distribution 	client-84 	34
scalar barabasi_100nodes_network.content_distribution 	client-85 	4
scalar barabasi_100nodes_network.content_distribution 	client-86 	76
scalar barabasi_100nodes_network.content_distribution 	client-87 	13
scalar barabasi_100nodes_network.content_distribution 	client-88 	36
scalar barabasi_100nodes_network.content_distribution 	client-89 	58
scalar barabasi_100nodes_network.content_distribution 	client-90 	74
scalar barabasi_100nodes_network.content_distribution 	client-91 	23
scalar barabasi_100nodes_network.content_distribution 	client-92 	25
scalar barabasi_100nodes_network.content_distribution 	client-93 	77
scalar barabasi_100nodes_network.content_distribution 	client-94 	98
scalar barabasi_100nodes_network.content_distribution 	client-95 	27
scalar barabasi_100nodes_network.content_distribution 	client-96 	99
scalar barabasi_100nodes_network.content_distribution 	client-97 	19
scalar barabasi_100nodes_network.content_distribution 	client-98 	20
scalar barabasi_100nodes_network.content_distribution 	client-99 	63
scalar barabasi_100nodes_network.content_distribution 	repo-0_card 	249719
scalar barabasi_100nodes_network.content_distribution 	repo-0_price 	0
scalar barabasi_100nodes_network.content_distribution 	repo-1_card 	249423
scalar barabasi_100nodes_network.content_distribution 	repo-1_price 	0
scalar barabasi_100nodes_network.content_distribution 	repo-2_card 	249931
scalar barabasi_100nodes_network.content_distribution 	repo-2_price 	0
scalar barabasi_100nodes_network.content_distribution 	repo-3_card 	250927
scalar barabasi_100nodes_network.content_distribution 	repo-3_price 	0
scalar barabasi_100nodes_network.content_distribution 	repo-4_card 	0
scalar barabasi_100nodes_network.content_distribution 	repo-4_price 	0
scalar barabasi_100nodes_network.content_distribution 	repo-5_card 	0
scalar barabasi_100nodes_network.content_distribution 	repo-5_price 	0
scalar barabasi_100nodes_network.content_distribution 	repo-6_card 	0
scalar barabasi_100nodes_network.content_distribution 	repo-6_price 	0
scalar barabasi_100nodes_network.content_distribution 	repo-7_card 	0
scalar barabasi_100nodes_network.content_distribution 	repo-7_price 	0
scalar barabasi_100nodes_network.content_distribution 	repo-8_card 	0
scalar barabasi_100nodes_network.content_distribution 	repo-8_price 	0
scalar barabasi_100nodes_network.content_distribution 	repo-9_card 	0
scalar barabasi_100nodes_network.content_distribution 	repo-9_price 	0
scalar barabasi_100nodes_network.content_distribution 	repo-10_card 	0
scalar barabasi_100nodes_network.content_distribution 	repo-10_price 	0
scalar barabasi_100nodes_network.content_distribution 	repo-11_card 	0
scalar barabasi_100nodes_network.content_distribution 	repo-11_price 	0
scalar barabasi_100nodes_network.content_distribution 	repo-12_card 	0
scalar barabasi_100nodes_network.content_distribution 	repo-12_price 	0
scalar barabasi_100nodes_network.content_distribution 	repo-13_card 	0
scalar barabasi_100nodes_network.content_distribution 	repo-13_price 	0
scalar barabasi_100nodes_network.content_distribution 	repo-14_card 	0
scalar barabasi_100nodes_network.content_distribution 	repo-14_price 	0
scalar barabasi_100nodes_network.content_distribution 	repo-15_card 	0
scalar barabasi_100nodes_network.content_distribution 	repo-15_price 	0
scalar barabasi_100nodes_network.content_distribution 	repo-16_card 	0
scalar barabasi_100nodes_network.content_distribution 	repo-16_price 	0
scalar barabasi_100nodes_network.content_distribution 	repo-17_card 	0
scalar barabasi_100nodes_network.content_distribution 	repo-17_price 	0
scalar barabasi_100nodes_network.content_distribution 	repo-18_card 	0
scalar barabasi_100nodes_network.content_distribution 	repo-18_price 	0
scalar barabasi_100nodes_network.content_distribution 	repo-19_card 	0
scalar barabasi_100nodes_network.content_distribution 	repo-19_price 	0
scalar barabasi_100nodes_network.content_distribution 	repo-20_card 	0
scalar barabasi_100nodes_network.content_distribution 	repo-20_price 	0
scalar barabasi_100nodes_network.content_distribution 	repo-21_card 	0
scalar barabasi_100nodes_network.content_distribution 	repo-21_price 	0
scalar barabasi_100nodes_network.content_distribution 	repo-22_card 	0
scalar barabasi_100nodes_network.content_distribution 	repo-22_price 	0
scalar barabasi_100nodes_network.content_distribution 	repo-23_card 	0
scalar barabasi_100nodes_network.content_distribution 	repo-23_price 	0
scalar barabasi_100nodes_network.content_distribution 	repo-24_card 	0
scalar barabasi_100nodes_network.content_distribution 	repo-24_price 	0
scalar barabasi_100nodes_network.content_distribution 	repo-25_card 	0
scalar barabasi_100nodes_network.content_distribution 	repo-25_price 	0
scalar barabasi_100nodes_network.content_distribution 	repo-26_card 	0
scalar barabasi_100nodes_network.content_distribution 	repo-26_price 	0
scalar barabasi_100nodes_network.content_distribution 	repo-27_card 	0
scalar barabasi_100nodes_network.content_distribution 	repo-27_price 	0
scalar barabasi_100nodes_network.content_distribution 	repo-28_card 	0
scalar barabasi_100nodes_network.content_distribution 	repo-28_price 	0
scalar barabasi_100nodes_network.content_distribution 	repo-29_card 	0
scalar barabasi_100nodes_network.content_distribution 	repo-29_price 	0
scalar barabasi_100nodes_network.content_distribution 	repo-30_card 	0
scalar barabasi_100nodes_network.content_distribution 	repo-30_price 	0
scalar barabasi_100nodes_network.content_distribution 	repo-31_card 	0
scalar barabasi_100nodes_network.content_distribution 	repo-31_price 	0
scalar barabasi_100nodes_network.content_distribution 	repo-32_card 	0
scalar barabasi_100nodes_network.content_distribution 	repo-32_price 	0
scalar barabasi_100nodes_network.content_distribution 	repo-33_card 	0
scalar barabasi_100nodes_network.content_distribution 	repo-33_price 	0
scalar barabasi_100nodes_network.content_distribution 	repo-34_card 	0
scalar barabasi_100nodes_network.content_distribution 	repo-34_price 	0
scalar barabasi_100nodes_network.content_distribution 	repo-35_card 	0
scalar barabasi_100nodes_network.content_distribution 	repo-35_price 	0
scalar barabasi_100nodes_network.content_distribution 	repo-36_card 	0
scalar barabasi_100nodes_network.content_distribution 	repo-36_price 	0
scalar barabasi_100nodes_network.content_distribution 	repo-37_card 	0
scalar barabasi_100nodes_network.content_distribution 	repo-37_price 	0
scalar barabasi_100nodes_network.content_distribution 	repo-38_card 	0
scalar barabasi_100nodes_network.content_distribution 	repo-38_price 	0
scalar barabasi_100nodes_network.content_distribution 	repo-39_card 	0
scalar barabasi_100nodes_network.content_distribution 	repo-39_price 	0
scalar barabasi_100nodes_network.content_distribution 	repo-40_card 	0
scalar barabasi_100nodes_network.content_distribution 	repo-40_price 	0
scalar barabasi_100nodes_network.content_distribution 	repo-41_card 	0
scalar barabasi_100nodes_network.content_distribution 	repo-41_price 	0
scalar barabasi_100nodes_network.content_distribution 	repo-42_card 	0
scalar barabasi_100nodes_network.content_distribution 	repo-42_price 	0
scalar barabasi_100nodes_network.content_distribution 	repo-43_card 	0
scalar barabasi_100nodes_network.content_distribution 	repo-43_price 	0
scalar barabasi_100nodes_network.content_distribution 	repo-44_card 	0
scalar barabasi_100nodes_network.content_distribution 	repo-44_price 	0
scalar barabasi_100nodes_network.content_distribution 	repo-45_card 	0
scalar barabasi_100nodes_network.content_distribution 	repo-45_price 	0
scalar barabasi_100nodes_network.content_distribution 	repo-46_card 	0
scalar barabasi_100nodes_network.content_distribution 	repo-46_price 	0
scalar barabasi_100nodes_network.content_distribution 	repo-47_card 	0
scalar barabasi_100nodes_network.content_distribution 	repo-47_price 	0
scalar barabasi_100nodes_network.content_distribution 	repo-48_card 	0
scalar barabasi_100nodes_network.content_distribution 	repo-48_price 	0
scalar barabasi_100nodes_network.content_distribution 	repo-49_card 	0
scalar barabasi_100nodes_network.content_distribution 	repo-49_price 	0
scalar barabasi_100nodes_network.content_distribution 	repo-50_card 	0
scalar barabasi_100nodes_network.content_distribution 	repo-50_price 	0
scalar barabasi_100nodes_network.content_distribution 	repo-51_card 	0
scalar barabasi_100nodes_network.content_distribution 	repo-51_price 	0
scalar barabasi_100nodes_network.content_distribution 	repo-52_card 	0
scalar barabasi_100nodes_network.content_distribution 	repo-52_price 	0
scalar barabasi_100nodes_network.content_distribution 	repo-53_card 	0
scalar barabasi_100nodes_network.content_distribution 	repo-53_price 	0
scalar barabasi_100nodes_network.content_distribution 	repo-54_card 	0
scalar barabasi_100nodes_network.content_distribution 	repo-54_price 	0
scalar barabasi_100nodes_network.content_distribution 	repo-55_card 	0
scalar barabasi_100nodes_network.content_distribution 	repo-55_price 	0
scalar barabasi_100nodes_network.content_distribution 	repo-56_card 	0
scalar barabasi_100nodes_network.content_distribution 	repo-56_price 	0
scalar barabasi_100nodes_network.content_distribution 	repo-57_card 	0
scalar barabasi_100nodes_network.content_distribution 	repo-57_price 	0
scalar barabasi_100nodes_network.content_distribution 	repo-58_card 	0
scalar barabasi_100nodes_network.content_distribution 	repo-58_price 	0
scalar barabasi_100nodes_network.content_distribution 	repo-59_card 	0
scalar barabasi_100nodes_network.content_distribution 	repo-59_price 	0
scalar barabasi_100nodes_network.content_distribution 	repo-60_card 	0
scalar barabasi_100nodes_network.content_distribution 	repo-60_price 	0
scalar barabasi_100nodes_network.content_distribution 	repo-61_card 	0
scalar barabasi_100nodes_network.content_distribution 	repo-61_price 	0
scalar barabasi_100nodes_network.content_distribution 	repo-62_card 	0
scalar barabasi_100nodes_network.content_distribution 	repo-62_price 	0
scalar barabasi_100nodes_network.content_distribution 	repo-63_card 	0
scalar barabasi_100nodes_network.content_distribution 	repo-63_price 	0
scalar barabasi_100nodes_network.content_distribution 	repo-64_card 	0
scalar barabasi_100nodes_network.content_distribution 	repo-64_price 	0
scalar barabasi_100nodes_network.content_distribution 	repo-65_card 	0
scalar barabasi_100nodes_network.content_distribution 	repo-65_price 	0
scalar barabasi_100nodes_network.content_distribution 	repo-66_card 	0
scalar barabasi_100nodes_network.content_distribution 	repo-66_price 	0
scalar barabasi_100nodes_network.content_distribution 	repo-67_card 	0
scalar barabasi_100nodes_network.content_distribution 	repo-67_price 	0
scalar barabasi_100nodes_network.content_distribution 	repo-68_card 	0
scalar barabasi_100nodes_network.content_distribution 	repo-68_price 	0
scalar barabasi_100nodes_network.content_distribution 	repo-69_card 	0
scalar barabasi_100nodes_network.content_distribution 	repo-69_price 	0
scalar barabasi_100nodes_network.content_distribution 	repo-70_card 	0
scalar barabasi_100nodes_network.content_distribution 	repo-70_price 	0
scalar barabasi_100nodes_network.content_distribution 	repo-71_card 	0
scalar barabasi_100nodes_network.content_distribution 	repo-71_price 	0
scalar barabasi_100nodes_network.content_distribution 	repo-72_card 	0
scalar barabasi_100nodes_network.content_distribution 	repo-72_price 	0
scalar barabasi_100nodes_network.content_distribution 	repo-73_card 	0
scalar barabasi_100nodes_network.content_distribution 	repo-73_price 	0
scalar barabasi_100nodes_network.content_distribution 	repo-74_card 	0
scalar barabasi_100nodes_network.content_distribution 	repo-74_price 	0
scalar barabasi_100nodes_network.content_distribution 	repo-75_card 	0
scalar barabasi_100nodes_network.content_distribution 	repo-75_price 	0
scalar barabasi_100nodes_network.content_distribution 	repo-76_card 	0
scalar barabasi_100nodes_network.content_distribution 	repo-76_price 	0
scalar barabasi_100nodes_network.content_distribution 	repo-77_card 	0
scalar barabasi_100nodes_network.content_distribution 	repo-77_price 	0
scalar barabasi_100nodes_network.content_distribution 	repo-78_card 	0
scalar barabasi_100nodes_network.content_distribution 	repo-78_price 	0
scalar barabasi_100nodes_network.content_distribution 	repo-79_card 	0
scalar barabasi_100nodes_network.content_distribution 	repo-79_price 	0
scalar barabasi_100nodes_network.content_distribution 	repo-80_card 	0
scalar barabasi_100nodes_network.content_distribution 	repo-80_price 	0
scalar barabasi_100nodes_network.content_distribution 	repo-81_card 	0
scalar barabasi_100nodes_network.content_distribution 	repo-81_price 	0
scalar barabasi_100nodes_network.content_distribution 	repo-82_card 	0
scalar barabasi_100nodes_network.content_distribution 	repo-82_price 	0
scalar barabasi_100nodes_network.content_distribution 	repo-83_card 	0
scalar barabasi_100nodes_network.content_distribution 	repo-83_price 	0
scalar barabasi_100nodes_network.content_distribution 	repo-84_card 	0
scalar barabasi_100nodes_network.content_distribution 	repo-84_price 	0
scalar barabasi_100nodes_network.content_distribution 	repo-85_card 	0
scalar barabasi_100nodes_network.content_distribution 	repo-85_price 	0
scalar barabasi_100nodes_network.content_distribution 	repo-86_card 	0
scalar barabasi_100nodes_network.content_distribution 	repo-86_price 	0
scalar barabasi_100nodes_network.content_distribution 	repo-87_card 	0
scalar barabasi_100nodes_network.content_distribution 	repo-87_price 	0
scalar barabasi_100nodes_network.content_distribution 	repo-88_card 	0
scalar barabasi_100nodes_network.content_distribution 	repo-88_price 	0
scalar barabasi_100nodes_network.content_distribution 	repo-89_card 	0
scalar barabasi_100nodes_network.content_distribution 	repo-89_price 	0
scalar barabasi_100nodes_network.content_distribution 	repo-90_card 	0
scalar barabasi_100nodes_network.content_distribution 	repo-90_price 	0
scalar barabasi_100nodes_network.content_distribution 	repo-91_card 	0
scalar barabasi_100nodes_network.content_distribution 	repo-91_price 	0
scalar barabasi_100nodes_network.content_distribution 	repo-92_card 	0
scalar barabasi_100nodes_network.content_distribution 	repo-92_price 	0
scalar barabasi_100nodes_network.content_distribution 	repo-93_card 	0
scalar barabasi_100nodes_network.content_distribution 	repo-93_price 	0
scalar barabasi_100nodes_network.content_distribution 	repo-94_card 	0
scalar barabasi_100nodes_network.content_distribution 	repo-94_price 	0
scalar barabasi_100nodes_network.content_distribution 	repo-95_card 	0
scalar barabasi_100nodes_network.content_distribution 	repo-95_price 	0
scalar barabasi_100nodes_network.content_distribution 	repo-96_card 	0
scalar barabasi_100nodes_network.content_distribution 	repo-96_price 	0
scalar barabasi_100nodes_network.content_distribution 	repo-97_card 	0
scalar barabasi_100nodes_network.content_distribution 	repo-97_price 	0
scalar barabasi_100nodes_network.content_distribution 	repo-98_card 	0
scalar barabasi_100nodes_network.content_distribution 	repo-98_price 	0
scalar barabasi_100nodes_network.content_distribution 	repo-99_card 	0
scalar barabasi_100nodes_network.content_distribution 	repo-99_price 	0
scalar barabasi_100nodes_network.statistics 	stabilization_time 	356.5
scalar barabasi_100nodes_network.statistics 	p_hit 	0.11377373496737
scalar barabasi_100nodes_network.statistics 	interests 	81501.06
scalar barabasi_100nodes_network.statistics 	data 	41521.88
scalar barabasi_100nodes_network.statistics 	hdistance 	1.8621072866678
scalar barabasi_100nodes_network.statistics 	avg_time 	0
scalar barabasi_100nodes_network.statistics 	downloads 	1494216
scalar barabasi_100nodes_network.statistics 	total_cost 	0
scalar barabasi_100nodes_network.statistics 	total_replicas 	1000000
scalar barabasi_100nodes_network.statistics 	"representations_downloaded 0.379428:0:0:0:0.620572:" 	0
scalar barabasi_100nodes_network.statistics 	"slots_per_representation 100:233:500:833:1167:" 	0
scalar barabasi_100nodes_network.statistics 	inner_hit 	2874.2968412867
scalar barabasi_100nodes_network.statistics 	execution_time 	495
scalar barabasi_100nodes_network.node[0].core_layer 	interests[0] 	640164
scalar barabasi_100nodes_network.node[0].core_layer 	data[0] 	416574
scalar barabasi_100nodes_network.node[0].core_layer 	slots_sent[face$o[1]->client[0]] 	10662456
scalar barabasi_100nodes_network.node[0].core_layer 	slots_sent[face$o[2]->node[1]] 	5897144
scalar barabasi_100nodes_network.node[0].core_layer 	slots_sent[face$o[3]->node[2]] 	110654595
scalar barabasi_100nodes_network.node[0].core_layer 	slots_sent[face$o[4]->node[5]] 	31485909
scalar barabasi_100nodes_network.node[0].core_layer 	slots_sent[face$o[5]->node[10]] 	11555619
scalar barabasi_100nodes_network.node[0].core_layer 	slots_sent[face$o[6]->node[11]] 	6075792
scalar barabasi_100nodes_network.node[0].core_layer 	slots_sent[face$o[7]->node[15]] 	17296143
scalar barabasi_100nodes_network.node[0].core_layer 	slots_sent[face$o[8]->node[21]] 	23657689
scalar barabasi_100nodes_network.node[0].core_layer 	slots_sent[face$o[9]->node[22]] 	8376209
scalar barabasi_100nodes_network.node[0].core_layer 	slots_sent[face$o[10]->node[28]] 	8313092
scalar barabasi_100nodes_network.node[0].core_layer 	slots_sent[face$o[11]->node[37]] 	8320258
scalar barabasi_100nodes_network.node[0].core_layer 	slots_sent[face$o[12]->node[44]] 	8421819
scalar barabasi_100nodes_network.node[0].core_layer 	slots_sent[face$o[13]->node[58]] 	16354506
scalar barabasi_100nodes_network.node[0].core_layer 	slots_sent[face$o[14]->node[73]] 	16148883
scalar barabasi_100nodes_network.node[0].core_layer 	slots_sent[face$o[15]->node[74]] 	8397648
scalar barabasi_100nodes_network.node[0].core_layer 	slots_sent[face$o[16]->node[93]] 	8320760
scalar barabasi_100nodes_network.node[0].content_store 	p_hit[0] 	0.046983273036284
scalar barabasi_100nodes_network.node[0].content_store 	hits[0] 	30077
scalar barabasi_100nodes_network.node[0].content_store 	misses[0] 	610087
scalar barabasi_100nodes_network.node[0].content_store 	decision_yes[0] 	216425
scalar barabasi_100nodes_network.node[0].content_store 	decision_no[0] 	200149
scalar barabasi_100nodes_network.node[0].content_store 	decision_ratio[0] 	0.51953554470514
scalar barabasi_100nodes_network.node[0].proactive_component 	hdistance[0].proactive_component 	3.0371032391647
scalar barabasi_100nodes_network.node[0].proactive_component 	downloads[0].proactive_component 	685331
scalar barabasi_100nodes_network.node[0].proactive_component 	avg_time[0].proactive_component 	0
scalar barabasi_100nodes_network.node[1].core_layer 	interests[1] 	352660
scalar barabasi_100nodes_network.node[1].core_layer 	repo_load[1] 	338491
scalar barabasi_100nodes_network.node[1].core_layer 	data[1] 	8481
scalar barabasi_100nodes_network.node[1].core_layer 	slots_sent[face$o[1]->client[1]] 	8614957
scalar barabasi_100nodes_network.node[1].core_layer 	slots_sent[face$o[2]->node[0]] 	139112799
scalar barabasi_100nodes_network.node[1].content_store 	p_hit[1] 	0.016128849316622
scalar barabasi_100nodes_network.node[1].content_store 	hits[1] 	5688
scalar barabasi_100nodes_network.node[1].content_store 	misses[1] 	346972
scalar barabasi_100nodes_network.node[1].content_store 	decision_yes[1] 	4732
scalar barabasi_100nodes_network.node[1].content_store 	decision_no[1] 	342240
scalar barabasi_100nodes_network.node[1].content_store 	decision_ratio[1] 	0.01363798807973
scalar barabasi_100nodes_network.node[1].proactive_component 	hdistance[1].proactive_component 	1.1399089146903
scalar barabasi_100nodes_network.node[1].proactive_component 	downloads[1].proactive_component 	404456
scalar barabasi_100nodes_network.node[1].proactive_component 	avg_time[1].proactive_component 	0
scalar barabasi_100nodes_network.node[2].core_layer 	interests[2] 	1317081
scalar barabasi_100nodes_network.node[2].core_layer 	data[2] 	862145
scalar barabasi_100nodes_network.node[2].core_layer 	slots_sent[face$o[1]->client[2]] 	10343297
scalar barabasi_100nodes_network.node[2].core_layer 	slots_sent[face$o[2]->node[0]] 	133470076
scalar barabasi_100nodes_network.node[2].core_layer 	slots_sent[face$o[3]->node[3]] 	16105536
scalar barabasi_100nodes_network.node[2].core_layer 	slots_sent[face$o[4]->node[4]] 	45560256
scalar barabasi_100nodes_network.node[2].core_layer 	slots_sent[face$o[5]->node[6]] 	5947357
scalar barabasi_100nodes_network.node[2].core_layer 	slots_sent[face$o[6]->node[7]] 	52996415
scalar barabasi_100nodes_network.node[2].core_layer 	slots_sent[face$o[7]->node[8]] 	56715424
scalar barabasi_100nodes_network.node[2].core_layer 	slots_sent[face$o[8]->node[13]] 	26199557
scalar barabasi_100nodes_network.node[2].core_layer 	slots_sent[face$o[9]->node[16]] 	51520603
scalar barabasi_100nodes_network.node[2].core_layer 	slots_sent[face$o[10]->node[18]] 	31466697
scalar barabasi_100nodes_network.node[2].core_layer 	slots_sent[face$o[11]->node[25]] 	16191759
scalar barabasi_100nodes_network.node[2].core_layer 	slots_sent[face$o[12]->node[26]] 	31083297
scalar barabasi_100nodes_network.node[2].core_layer 	slots_sent[face$o[13]->node[29]] 	8304687
scalar barabasi_100nodes_network.node[2].core_layer 	slots_sent[face$o[14]->node[32]] 	23834098
scalar barabasi_100nodes_network.node[2].core_layer 	slots_sent[face$o[15]->node[33]] 	8364504
scalar barabasi_100nodes_network.node[2].core_layer 	slots_sent[face$o[16]->node[34]] 	8312358
scalar barabasi_100nodes_network.node[2].core_layer 	slots_sent[face$o[17]->node[36]] 	16116339
scalar barabasi_100nodes_network.node[2].core_layer 	slots_sent[face$o[18]->node[41]] 	30300260
scalar barabasi_100nodes_network.node[2].core_layer 	slots_sent[face$o[19]->node[45]] 	8331663
scalar barabasi_100nodes_network.node[2].core_layer 	slots_sent[face$o[20]->node[59]] 	8312990
scalar barabasi_100nodes_network.node[2].core_layer 	slots_sent[face$o[21]->node[62]] 	23888745
scalar barabasi_100nodes_network.node[2].core_layer 	slots_sent[face$o[22]->node[79]] 	8502807
scalar barabasi_100nodes_network.node[2].content_store 	p_hit[2] 	0.039450876597567
scalar barabasi_100nodes_network.node[2].content_store 	hits[2] 	51960
scalar barabasi_100nodes_network.node[2].content_store 	misses[2] 	1265121
scalar barabasi_100nodes_network.node[2].content_store 	decision_yes[2] 	452492
scalar barabasi_100nodes_network.node[2].content_store 	decision_no[2] 	409653
scalar barabasi_100nodes_network.node[2].content_store 	decision_ratio[2] 	0.52484442872139
scalar barabasi_100nodes_network.node[2].proactive_component 	hdistance[2].proactive_component 	3.244589117691
scalar barabasi_100nodes_network.node[2].proactive_component 	downloads[2].proactive_component 	1403930
scalar barabasi_100nodes_network.node[2].proactive_component 	avg_time[2].proactive_component 	0
scalar barabasi_100nodes_network.node[3].core_layer 	interests[3] 	37038
scalar barabasi_100nodes_network.node[3].core_layer 	data[3] 	23327
scalar barabasi_100nodes_network.node[3].core_layer 	slots_sent[face$o[1]->client[3]] 	11656675
scalar barabasi_100nodes_network.node[3].core_layer 	slots_sent[face$o[2]->node[2]] 	0
scalar barabasi_100nodes_network.node[3].core_layer 	slots_sent[face$o[3]->node[52]] 	8290625
scalar barabasi_100nodes_network.node[3].content_store 	p_hit[3] 	0.23494789135482
scalar barabasi_100nodes_network.node[3].content_store 	hits[3] 	8702
scalar barabasi_100nodes_network.node[3].content_store 	misses[3] 	28336
scalar barabasi_100nodes_network.node[3].content_store 	decision_yes[3] 	12908
scalar barabasi_100nodes_network.node[3].content_store 	decision_no[3] 	10419
scalar barabasi_100nodes_network.node[3].content_store 	decision_ratio[3] 	0.55335019505294
scalar barabasi_100nodes_network.node[3].proactive_component 	hdistance[3].proactive_component 	4.2326622546021
scalar barabasi_100nodes_network.node[3].proactive_component 	downloads[3].proactive_component 	35962
scalar barabasi_100nodes_network.node[3].proactive_component 	avg_time[3].proactive_component 	0
scalar barabasi_100nodes_network.node[4].core_layer 	interests[4] 	101788
scalar barabasi_100nodes_network.node[4].core_layer 	data[4] 	66489
scalar barabasi_100nodes_network.node[4].core_layer 	slots_sent[face$o[1]->client[4]] 	11595287
scalar barabasi_100nodes_network.node[4].core_layer 	slots_sent[face$o[2]->node[2]] 	0
scalar barabasi_100nodes_network.node[4].core_layer 	slots_sent[face$o[3]->node[27]] 	16068509
scalar barabasi_100nodes_network.node[4].core_layer 	slots_sent[face$o[4]->node[30]] 	15787700
scalar barabasi_100nodes_network.node[4].core_layer 	slots_sent[face$o[5]->node[85]] 	8268186
scalar barabasi_100nodes_network.node[4].content_store 	p_hit[4] 	0.10630919165324
scalar barabasi_100nodes_network.node[4].content_store 	hits[4] 	10821
scalar barabasi_100nodes_network.node[4].content_store 	misses[4] 	90967
scalar barabasi_100nodes_network.node[4].content_store 	decision_yes[4] 	36468
scalar barabasi_100nodes_network.node[4].content_store 	decision_no[4] 	30021
scalar barabasi_100nodes_network.node[4].content_store 	decision_ratio[4] 	0.54848170374047
scalar barabasi_100nodes_network.node[4].proactive_component 	hdistance[4].proactive_component 	4.2341613227227
scalar barabasi_100nodes_network.node[4].proactive_component 	downloads[4].proactive_component 	103544
scalar barabasi_100nodes_network.node[4].proactive_component 	avg_time[4].proactive_component 	0
scalar barabasi_100nodes_network.node[5].core_layer 	interests[5] 	70362
scalar barabasi_100nodes_network.node[5].core_layer 	data[5] 	45687
scalar barabasi_100nodes_network.node[5].core_layer 	slots_sent[face$o[1]->client[5]] 	11671146
scalar barabasi_100nodes_network.node[5].core_layer 	slots_sent[face$o[2]->node[0]] 	0
scalar barabasi_100nodes_network.node[5].core_layer 	slots_sent[face$o[3]->node[9]] 	8470808
scalar barabasi_100nodes_network.node[5].core_layer 	slots_sent[face$o[4]->node[35]] 	16262860
scalar barabasi_100nodes_network.node[5].content_store 	p_hit[5] 	0.13669310138995
scalar barabasi_100nodes_network.node[5].content_store 	hits[5] 	9618
scalar barabasi_100nodes_network.node[5].content_store 	misses[5] 	60744
scalar barabasi_100nodes_network.node[5].content_store 	decision_yes[5] 	25227
scalar barabasi_100nodes_network.node[5].content_store 	decision_no[5] 	20460
scalar barabasi_100nodes_network.node[5].content_store 	decision_ratio[5] 	0.55217020158907
scalar barabasi_100nodes_network.node[5].proactive_component 	hdistance[5].proactive_component 	4.7241186104647
scalar barabasi_100nodes_network.node[5].proactive_component 	downloads[5].proactive_component 	69606
scalar barabasi_100nodes_network.node[5].proactive_component 	avg_time[5].proactive_component 	0
scalar barabasi_100nodes_network.node[6].core_layer 	interests[6] 	22025
scalar barabasi_100nodes_network.node[6].core_layer 	repo_load[6] 	6782
scalar barabasi_100nodes_network.node[6].core_layer 	data[6] 	8567
scalar barabasi_100nodes_network.node[6].core_layer 	slots_sent[face$o[1]->client[6]] 	9647417
scalar barabasi_100nodes_network.node[6].core_layer 	slots_sent[face$o[2]->node[2]] 	0
scalar barabasi_100nodes_network.node[6].content_store 	p_hit[6] 	0.30311010215664
scalar barabasi_100nodes_network.node[6].content_store 	hits[6] 	6676
scalar barabasi_100nodes_network.node[6].content_store 	misses[6] 	15349
scalar barabasi_100nodes_network.node[6].content_store 	decision_yes[6] 	4771
scalar barabasi_100nodes_network.node[6].content_store 	decision_no[6] 	10578
scalar barabasi_100nodes_network.node[6].content_store 	decision_ratio[6] 	0.31083458205746
scalar barabasi_100nodes_network.node[6].proactive_component 	hdistance[6].proactive_component 	2.7726573256662
scalar barabasi_100nodes_network.node[6].proactive_component 	downloads[6].proactive_component 	24694
scalar barabasi_100nodes_network.node[6].proactive_component 	avg_time[6].proactive_component 	0
scalar barabasi_100nodes_network.node[7].core_layer 	interests[7] 	531909
scalar barabasi_100nodes_network.node[7].core_layer 	repo_load[7] 	72354
scalar barabasi_100nodes_network.node[7].core_layer 	data[7] 	296119
scalar barabasi_100nodes_network.node[7].core_layer 	slots_sent[face$o[1]->client[7]] 	7746191
scalar barabasi_100nodes_network.node[7].core_layer 	slots_sent[face$o[2]->node[2]] 	147264566
scalar barabasi_100nodes_network.node[7].core_layer 	slots_sent[face$o[3]->node[23]] 	42034072
scalar barabasi_100nodes_network.node[7].core_layer 	slots_sent[face$o[4]->node[31]] 	29006618
scalar barabasi_100nodes_network.node[7].core_layer 	slots_sent[face$o[5]->node[49]] 	8130235
scalar barabasi_100nodes_network.node[7].core_layer 	slots_sent[face$o[6]->node[90]] 	8415877
scalar barabasi_100nodes_network.node[7].content_store 	p_hit[7] 	0.045692026267651
scalar barabasi_100nodes_network.node[7].content_store 	hits[7] 	24304
scalar barabasi_100nodes_network.node[7].content_store 	misses[7] 	507605
scalar barabasi_100nodes_network.node[7].content_store 	decision_yes[7] 	152425
scalar barabasi_100nodes_network.node[7].content_store 	decision_no[7] 	216048
scalar barabasi_100nodes_network.node[7].content_store 	decision_ratio[7] 	0.41366667299911
scalar barabasi_100nodes_network.node[7].proactive_component 	hdistance[7].proactive_component 	2.9050176284834
scalar barabasi_100nodes_network.node[7].proactive_component 	downloads[7].proactive_component 	581729
scalar barabasi_100nodes_network.node[7].proactive_component 	avg_time[7].proactive_component 	0
scalar barabasi_100nodes_network.node[8].core_layer 	interests[8] 	127143
scalar barabasi_100nodes_network.node[8].core_layer 	data[8] 	83035
scalar barabasi_100nodes_network.node[8].core_layer 	slots_sent[face$o[1]->client[8]] 	11356217
scalar barabasi_100nodes_network.node[8].core_layer 	slots_sent[face$o[2]->node[2]] 	0
scalar barabasi_100nodes_network.node[8].core_layer 	slots_sent[face$o[3]->node[12]] 	8426829
scalar barabasi_100nodes_network.node[8].core_layer 	slots_sent[face$o[4]->node[14]] 	5833195
scalar barabasi_100nodes_network.node[8].core_layer 	slots_sent[face$o[5]->node[17]] 	6030552
scalar barabasi_100nodes_network.node[8].core_layer 	slots_sent[face$o[6]->node[39]] 	15978785
scalar barabasi_100nodes_network.node[8].core_layer 	slots_sent[face$o[7]->node[61]] 	8405791
scalar barabasi_100nodes_network.node[8].core_layer 	slots_sent[face$o[8]->node[66]] 	8205370
scalar barabasi_100nodes_network.node[8].content_store 	p_hit[8] 	0.094759444090512
scalar barabasi_100nodes_network.node[8].content_store 	hits[8] 	12048
scalar barabasi_100nodes_network.node[8].content_store 	misses[8] 	115095
scalar barabasi_100nodes_network.node[8].content_store 	decision_yes[8] 	45372
scalar barabasi_100nodes_network.node[8].content_store 	decision_no[8] 	37663
scalar barabasi_100nodes_network.node[8].content_store 	decision_ratio[8] 	0.54642018425965
scalar barabasi_100nodes_network.node[8].proactive_component 	hdistance[8].proactive_component 	4.2225437540512
scalar barabasi_100nodes_network.node[8].proactive_component 	downloads[8].proactive_component 	129588
scalar barabasi_100nodes_network.node[8].proactive_component 	avg_time[8].proactive_component 	0
scalar barabasi_100nodes_network.node[9].core_layer 	interests[9] 	20070
scalar barabasi_100nodes_network.node[9].core_layer 	data[9] 	11896
scalar barabasi_100nodes_network.node[9].core_layer 	slots_sent[face$o[1]->client[9]] 	12090842
scalar barabasi_100nodes_network.node[9].core_layer 	slots_sent[face$o[2]->node[5]] 	0
scalar barabasi_100nodes_network.node[9].content_store 	p_hit[9] 	0.4072745391131
scalar barabasi_100nodes_network.node[9].content_store 	hits[9] 	8174
scalar barabasi_100nodes_network.node[9].content_store 	misses[9] 	11896
scalar barabasi_100nodes_network.node[9].content_store 	decision_yes[9] 	6824
scalar barabasi_100nodes_network.node[9].content_store 	decision_no[9] 	5072
scalar barabasi_100nodes_network.node[9].content_store 	decision_ratio[9] 	0.57363819771352
scalar barabasi_100nodes_network.node[9].proactive_component 	hdistance[9].proactive_component 	5.7302782516618
scalar barabasi_100nodes_network.node[9].proactive_component 	downloads[9].proactive_component 	16999
scalar barabasi_100nodes_network.node[9].proactive_component 	avg_time[9].proactive_component 	0
scalar barabasi_100nodes_network.node[10].core_layer 	interests[10] 	39213
scalar barabasi_100nodes_network.node[10].core_layer 	repo_load[10] 	10783
scalar barabasi_100nodes_network.node[10].core_layer 	data[10] 	16784
scalar barabasi_100nodes_network.node[10].core_layer 	slots_sent[face$o[1]->client[10]] 	10347532
scalar barabasi_100nodes_network.node[10].core_layer 	slots_sent[face$o[2]->node[0]] 	0
scalar barabasi_100nodes_network.node[10].core_layer 	slots_sent[face$o[3]->node[71]] 	8447425
scalar barabasi_100nodes_network.node[10].content_store 	p_hit[10] 	0.20225435442328
scalar barabasi_100nodes_network.node[10].content_store 	hits[10] 	7931
scalar barabasi_100nodes_network.node[10].content_store 	misses[10] 	31282
scalar barabasi_100nodes_network.node[10].content_store 	decision_yes[10] 	9257
scalar barabasi_100nodes_network.node[10].content_store 	decision_no[10] 	18310
scalar barabasi_100nodes_network.node[10].content_store 	decision_ratio[10] 	0.33580005078536
scalar barabasi_100nodes_network.node[10].proactive_component 	hdistance[10].proactive_component 	3.2821058229194
scalar barabasi_100nodes_network.node[10].proactive_component 	downloads[10].proactive_component 	41371
scalar barabasi_100nodes_network.node[10].proactive_component 	avg_time[10].proactive_component 	0
scalar barabasi_100nodes_network.node[11].core_layer 	interests[11] 	23324
scalar barabasi_100nodes_network.node[11].core_layer 	repo_load[11] 	8894
scalar barabasi_100nodes_network.node[11].core_layer 	data[11] 	8731
scalar barabasi_100nodes_network.node[11].core_layer 	slots_sent[face$o[1]->client[11]] 	8672440
scalar barabasi_100nodes_network.node[11].core_layer 	slots_sent[face$o[2]->node[0]] 	0
scalar barabasi_100nodes_network.node[11].content_store 	p_hit[11] 	0.24434059338021
scalar barabasi_100nodes_network.node[11].content_store 	hits[11] 	5699
scalar barabasi_100nodes_network.node[11].content_store 	misses[11] 	17625
scalar barabasi_100nodes_network.node[11].content_store 	decision_yes[11] 	4876
scalar barabasi_100nodes_network.node[11].content_store 	decision_no[11] 	12749
scalar barabasi_100nodes_network.node[11].content_store 	decision_ratio[11] 	0.2766524822695
scalar barabasi_100nodes_network.node[11].proactive_component 	hdistance[11].proactive_component 	3.0334306928951
scalar barabasi_100nodes_network.node[11].proactive_component 	downloads[11].proactive_component 	28417
scalar barabasi_100nodes_network.node[11].proactive_component 	avg_time[11].proactive_component 	0
scalar barabasi_100nodes_network.node[12].core_layer 	interests[12] 	20091
scalar barabasi_100nodes_network.node[12].core_layer 	data[12] 	11851
scalar barabasi_100nodes_network.node[12].core_layer 	slots_sent[face$o[1]->client[12]] 	12133221
scalar barabasi_100nodes_network.node[12].core_layer 	slots_sent[face$o[2]->node[8]] 	0
scalar barabasi_100nodes_network.node[12].content_store 	p_hit[12] 	0.41013389079687
scalar barabasi_100nodes_network.node[12].content_store 	hits[12] 	8240
scalar barabasi_100nodes_network.node[12].content_store 	misses[12] 	11851
scalar barabasi_100nodes_network.node[12].content_store 	decision_yes[12] 	6787
scalar barabasi_100nodes_network.node[12].content_store 	decision_no[12] 	5064
scalar barabasi_100nodes_network.node[12].content_store 	decision_ratio[12] 	0.57269428740191
scalar barabasi_100nodes_network.node[12].proactive_component 	hdistance[12].proactive_component 	5.2376606011278
scalar barabasi_100nodes_network.node[12].proactive_component 	downloads[12].proactive_component 	17201
scalar barabasi_100nodes_network.node[12].proactive_component 	avg_time[12].proactive_component 	0
scalar barabasi_100nodes_network.node[13].core_layer 	interests[13] 	85643
scalar barabasi_100nodes_network.node[13].core_layer 	repo_load[13] 	25621
scalar barabasi_100nodes_network.node[13].core_layer 	data[13] 	38235
scalar barabasi_100nodes_network.node[13].core_layer 	slots_sent[face$o[1]->client[13]] 	9627509
scalar barabasi_100nodes_network.node[13].core_layer 	slots_sent[face$o[2]->node[2]] 	0
scalar barabasi_100nodes_network.node[13].core_layer 	slots_sent[face$o[3]->node[67]] 	8443992
scalar barabasi_100nodes_network.node[13].core_layer 	slots_sent[face$o[4]->node[78]] 	21694388
scalar barabasi_100nodes_network.node[13].content_store 	p_hit[13] 	0.097964807398153
scalar barabasi_100nodes_network.node[13].content_store 	hits[13] 	8390
scalar barabasi_100nodes_network.node[13].content_store 	misses[13] 	77253
scalar barabasi_100nodes_network.node[13].content_store 	decision_yes[13] 	20971
scalar barabasi_100nodes_network.node[13].content_store 	decision_no[13] 	42885
scalar barabasi_100nodes_network.node[13].content_store 	decision_ratio[13] 	0.32841079929842
scalar barabasi_100nodes_network.node[13].proactive_component 	hdistance[13].proactive_component 	3.1347912353347
scalar barabasi_100nodes_network.node[13].proactive_component 	downloads[13].proactive_component 	92736
scalar barabasi_100nodes_network.node[13].proactive_component 	avg_time[13].proactive_component 	0
scalar barabasi_100nodes_network.node[14].core_layer 	interests[14] 	22577
scalar barabasi_100nodes_network.node[14].core_layer 	repo_load[14] 	8454
scalar barabasi_100nodes_network.node[14].core_layer 	data[14] 	8343
scalar barabasi_100nodes_network.node[14].core_layer 	slots_sent[face$o[1]->client[14]] 	8732269
scalar barabasi_100nodes_network.node[14].core_layer 	slots_sent[face$o[2]->node[8]] 	0
scalar barabasi_100nodes_network.node[14].content_store 	p_hit[14] 	0.25601275634495
scalar barabasi_100nodes_network.node[14].content_store 	hits[14] 	5780
scalar barabasi_100nodes_network.node[14].content_store 	misses[14] 	16797
scalar barabasi_100nodes_network.node[14].content_store 	decision_yes[14] 	4685
scalar barabasi_100nodes_network.node[14].content_store 	decision_no[14] 	12112
scalar barabasi_100nodes_network.node[14].content_store 	decision_ratio[14] 	0.27891885455736
scalar barabasi_100nodes_network.node[14].proactive_component 	hdistance[14].proactive_component 	2.8820822975029
scalar barabasi_100nodes_network.node[14].proactive_component 	downloads[14].proactive_component 	26951
scalar barabasi_100nodes_network.node[14].proactive_component 	avg_time[14].proactive_component 	0
scalar barabasi_100nodes_network.node[15].core_layer 	interests[15] 	59101
scalar barabasi_100nodes_network.node[15].core_layer 	repo_load[15] 	19090
scalar barabasi_100nodes_network.node[15].core_layer 	data[15] 	25406
scalar barabasi_100nodes_network.node[15].core_layer 	slots_sent[face$o[1]->client[15]] 	8762396
scalar barabasi_100nodes_network.node[15].core_layer 	slots_sent[face$o[2]->node[0]] 	0
scalar barabasi_100nodes_network.node[15].core_layer 	slots_sent[face$o[3]->node[40]] 	8555552
scalar barabasi_100nodes_network.node[15].core_layer 	slots_sent[face$o[4]->node[56]] 	8378105
scalar barabasi_100nodes_network.node[15].content_store 	p_hit[15] 	0.12087781932624
scalar barabasi_100nodes_network.node[15].content_store 	hits[15] 	7144
scalar barabasi_100nodes_network.node[15].content_store 	misses[15] 	51957
scalar barabasi_100nodes_network.node[15].content_store 	decision_yes[15] 	13829
scalar barabasi_100nodes_network.node[15].content_store 	decision_no[15] 	30667
scalar barabasi_100nodes_network.node[15].content_store 	decision_ratio[15] 	0.31079198130169
scalar barabasi_100nodes_network.node[15].proactive_component 	hdistance[15].proactive_component 	2.995404118032
scalar barabasi_100nodes_network.node[15].proactive_component 	downloads[15].proactive_component 	65711
scalar barabasi_100nodes_network.node[15].proactive_component 	avg_time[15].proactive_component 	0
scalar barabasi_100nodes_network.node[16].core_layer 	interests[16] 	114233
scalar barabasi_100nodes_network.node[16].core_layer 	data[16] 	75505
scalar barabasi_100nodes_network.node[16].core_layer 	slots_sent[face$o[1]->client[16]] 	11471284
scalar barabasi_100nodes_network.node[16].core_layer 	slots_sent[face$o[2]->node[2]] 	0
scalar barabasi_100nodes_network.node[16].core_layer 	slots_sent[face$o[3]->node[19]] 	36768261
scalar barabasi_100nodes_network.node[16].core_layer 	slots_sent[face$o[4]->node[20]] 	8450868
scalar barabasi_100nodes_network.node[16].content_store 	p_hit[16] 	0.087592902226152
scalar barabasi_100nodes_network.node[16].content_store 	hits[16] 	10006
scalar barabasi_100nodes_network.node[16].content_store 	misses[16] 	104227
scalar barabasi_100nodes_network.node[16].content_store 	decision_yes[16] 	41208
scalar barabasi_100nodes_network.node[16].content_store 	decision_no[16] 	34297
scalar barabasi_100nodes_network.node[16].content_store 	decision_ratio[16] 	0.54576518111383
scalar barabasi_100nodes_network.node[16].proactive_component 	hdistance[16].proactive_component 	4.2444312979062
scalar barabasi_100nodes_network.node[16].proactive_component 	downloads[16].proactive_component 	116634
scalar barabasi_100nodes_network.node[16].proactive_component 	avg_time[16].proactive_component 	0
scalar barabasi_100nodes_network.node[17].core_layer 	interests[17] 	21851
scalar barabasi_100nodes_network.node[17].core_layer 	repo_load[17] 	6610
scalar barabasi_100nodes_network.node[17].core_layer 	data[17] 	8492
scalar barabasi_100nodes_network.node[17].core_layer 	slots_sent[face$o[1]->client[17]] 	9993923
scalar barabasi_100nodes_network.node[17].core_layer 	slots_sent[face$o[2]->node[8]] 	0
scalar barabasi_100nodes_network.node[17].content_store 	p_hit[17] 	0.30886458285662
scalar barabasi_100nodes_network.node[17].content_store 	hits[17] 	6749
scalar barabasi_100nodes_network.node[17].content_store 	misses[17] 	15102
scalar barabasi_100nodes_network.node[17].content_store 	decision_yes[17] 	4856
scalar barabasi_100nodes_network.node[17].content_store 	decision_no[17] 	10246
scalar barabasi_100nodes_network.node[17].content_store 	decision_ratio[17] 	0.32154681499139
scalar barabasi_100nodes_network.node[17].proactive_component 	hdistance[17].proactive_component 	3.2546677248235
scalar barabasi_100nodes_network.node[17].proactive_component 	downloads[17].proactive_component 	23941
scalar barabasi_100nodes_network.node[17].proactive_component 	avg_time[17].proactive_component 	0
scalar barabasi_100nodes_network.node[18].core_layer 	interests[18] 	70771
scalar barabasi_100nodes_network.node[18].core_layer 	data[18] 	45879
scalar barabasi_100nodes_network.node[18].core_layer 	slots_sent[face$o[1]->client[18]] 	11270660
scalar barabasi_100nodes_network.node[18].core_layer 	slots_sent[face$o[2]->node[2]] 	0
scalar barabasi_100nodes_network.node[18].core_layer 	slots_sent[face$o[3]->node[53]] 	8477876
scalar barabasi_100nodes_network.node[18].core_layer 	slots_sent[face$o[4]->node[68]] 	8344140
scalar barabasi_100nodes_network.node[18].core_layer 	slots_sent[face$o[5]->node[72]] 	8280089
scalar barabasi_100nodes_network.node[18].content_store 	p_hit[18] 	0.13819219736898
scalar barabasi_100nodes_network.node[18].content_store 	hits[18] 	9780
scalar barabasi_100nodes_network.node[18].content_store 	misses[18] 	60991
scalar barabasi_100nodes_network.node[18].content_store 	decision_yes[18] 	25191
scalar barabasi_100nodes_network.node[18].content_store 	decision_no[18] 	20688
scalar barabasi_100nodes_network.node[18].content_store 	decision_ratio[18] 	0.54907474007716
scalar barabasi_100nodes_network.node[18].proactive_component 	hdistance[18].proactive_component 	4.2352122674997
scalar barabasi_100nodes_network.node[18].proactive_component 	downloads[18].proactive_component 	70430
scalar barabasi_100nodes_network.node[18].proactive_component 	avg_time[18].proactive_component 	0
scalar barabasi_100nodes_network.node[19].core_layer 	interests[19] 	81842
scalar barabasi_100nodes_network.node[19].core_layer 	data[19] 	53099
scalar barabasi_100nodes_network.node[19].core_layer 	slots_sent[face$o[1]->client[19]] 	11799416
scalar barabasi_100nodes_network.node[19].core_layer 	slots_sent[face$o[2]->node[16]] 	0
scalar barabasi_100nodes_network.node[19].core_layer 	slots_sent[face$o[3]->node[63]] 	8343810
scalar barabasi_100nodes_network.node[19].core_layer 	slots_sent[face$o[4]->node[70]] 	8321936
scalar barabasi_100nodes_network.node[19].core_layer 	slots_sent[face$o[5]->node[80]] 	8265357
scalar barabasi_100nodes_network.node[19].core_layer 	slots_sent[face$o[6]->node[89]] 	6020951
scalar barabasi_100nodes_network.node[19].content_store 	p_hit[19] 	0.12865032623836
scalar barabasi_100nodes_network.node[19].content_store 	hits[19] 	10529
scalar barabasi_100nodes_network.node[19].content_store 	misses[19] 	71313
scalar barabasi_100nodes_network.node[19].content_store 	decision_yes[19] 	29483
scalar barabasi_100nodes_network.node[19].content_store 	decision_no[19] 	23616
scalar barabasi_100nodes_network.node[19].content_store 	decision_ratio[19] 	0.55524586150398
scalar barabasi_100nodes_network.node[19].proactive_component 	hdistance[19].proactive_component 	5.2496208448324
scalar barabasi_100nodes_network.node[19].proactive_component 	downloads[19].proactive_component 	80442
scalar barabasi_100nodes_network.node[19].proactive_component 	avg_time[19].proactive_component 	0
scalar barabasi_100nodes_network.node[20].core_layer 	interests[20] 	20065
scalar barabasi_100nodes_network.node[20].core_layer 	data[20] 	11910
scalar barabasi_100nodes_network.node[20].core_layer 	slots_sent[face$o[1]->client[20]] 	12009051
scalar barabasi_100nodes_network.node[20].core_layer 	slots_sent[face$o[2]->node[16]] 	0
scalar barabasi_100nodes_network.node[20].content_store 	p_hit[20] 	0.40642910540743
scalar barabasi_100nodes_network.node[20].content_store 	hits[20] 	8155
scalar barabasi_100nodes_network.node[20].content_store 	misses[20] 	11910
scalar barabasi_100nodes_network.node[20].content_store 	decision_yes[20] 	6804
scalar barabasi_100nodes_network.node[20].content_store 	decision_no[20] 	5106
scalar barabasi_100nodes_network.node[20].content_store 	decision_ratio[20] 	0.57128463476071
scalar barabasi_100nodes_network.node[20].proactive_component 	hdistance[20].proactive_component 	5.2393842579146
scalar barabasi_100nodes_network.node[20].proactive_component 	downloads[20].proactive_component 	17215
scalar barabasi_100nodes_network.node[20].proactive_component 	avg_time[20].proactive_component 	0
scalar barabasi_100nodes_network.node[21].core_layer 	interests[21] 	53464
scalar barabasi_100nodes_network.node[21].core_layer 	data[21] 	34199
scalar barabasi_100nodes_network.node[21].core_layer 	slots_sent[face$o[1]->client[21]] 	11750870
scalar barabasi_100nodes_network.node[21].core_layer 	slots_sent[face$o[2]->node[0]] 	0
scalar barabasi_100nodes_network.node[21].core_layer 	slots_sent[face$o[3]->node[24]] 	8367149
scalar barabasi_100nodes_network.node[21].core_layer 	slots_sent[face$o[4]->node[57]] 	8246181
scalar barabasi_100nodes_network.node[21].content_store 	p_hit[21] 	0.1756883136316
scalar barabasi_100nodes_network.node[21].content_store 	hits[21] 	9393
scalar barabasi_100nodes_network.node[21].content_store 	misses[21] 	44071
scalar barabasi_100nodes_network.node[21].content_store 	decision_yes[21] 	18967
scalar barabasi_100nodes_network.node[21].content_store 	decision_no[21] 	15232
scalar barabasi_100nodes_network.node[21].content_store 	decision_ratio[21] 	0.5546068598497
scalar barabasi_100nodes_network.node[21].proactive_component 	hdistance[21].proactive_component 	4.7172891417264
scalar barabasi_100nodes_network.node[21].proactive_component 	downloads[21].proactive_component 	52559
scalar barabasi_100nodes_network.node[21].proactive_component 	avg_time[21].proactive_component 	0
scalar barabasi_100nodes_network.node[22].core_layer 	interests[22] 	20150
scalar barabasi_100nodes_network.node[22].core_layer 	data[22] 	11985
scalar barabasi_100nodes_network.node[22].core_layer 	slots_sent[face$o[1]->client[22]] 	11768678
scalar barabasi_100nodes_network.node[22].core_layer 	slots_sent[face$o[2]->node[0]] 	0
scalar barabasi_100nodes_network.node[22].content_store 	p_hit[22] 	0.40521091811414
scalar barabasi_100nodes_network.node[22].content_store 	hits[22] 	8165
scalar barabasi_100nodes_network.node[22].content_store 	misses[22] 	11985
scalar barabasi_100nodes_network.node[22].content_store 	decision_yes[22] 	6727
scalar barabasi_100nodes_network.node[22].content_store 	decision_no[22] 	5258
scalar barabasi_100nodes_network.node[22].content_store 	decision_ratio[22] 	0.56128493950772
scalar barabasi_100nodes_network.node[22].proactive_component 	hdistance[22].proactive_component 	4.7141747572815
scalar barabasi_100nodes_network.node[22].proactive_component 	downloads[22].proactive_component 	18025
scalar barabasi_100nodes_network.node[22].proactive_component 	avg_time[22].proactive_component 	0
scalar barabasi_100nodes_network.node[23].core_layer 	interests[23] 	439682
scalar barabasi_100nodes_network.node[23].core_layer 	data[23] 	292009
scalar barabasi_100nodes_network.node[23].core_layer 	slots_sent[face$o[1]->client[23]] 	9783019
scalar barabasi_100nodes_network.node[23].core_layer 	slots_sent[face$o[2]->node[7]] 	139252960
scalar barabasi_100nodes_network.node[23].core_layer 	slots_sent[face$o[3]->node[46]] 	11604017
scalar barabasi_100nodes_network.node[23].core_layer 	slots_sent[face$o[4]->node[47]] 	5858661
scalar barabasi_100nodes_network.node[23].core_layer 	slots_sent[face$o[5]->node[51]] 	8361463
scalar barabasi_100nodes_network.node[23].core_layer 	slots_sent[face$o[6]->node[83]] 	8537212
scalar barabasi_100nodes_network.node[23].core_layer 	slots_sent[face$o[7]->node[86]] 	8348428
scalar barabasi_100nodes_network.node[23].content_store 	p_hit[23] 	0.025309200740535
scalar barabasi_100nodes_network.node[23].content_store 	hits[23] 	11128
scalar barabasi_100nodes_network.node[23].content_store 	misses[23] 	428554
scalar barabasi_100nodes_network.node[23].content_store 	decision_yes[23] 	148158
scalar barabasi_100nodes_network.node[23].content_store 	decision_no[23] 	143851
scalar barabasi_100nodes_network.node[23].content_store 	decision_ratio[23] 	0.50737477269536
scalar barabasi_100nodes_network.node[23].proactive_component 	hdistance[23].proactive_component 	2.3628091427507
scalar barabasi_100nodes_network.node[23].proactive_component 	downloads[23].proactive_component 	493987
scalar barabasi_100nodes_network.node[23].proactive_component 	avg_time[23].proactive_component 	0
scalar barabasi_100nodes_network.node[24].core_layer 	interests[24] 	19915
scalar barabasi_100nodes_network.node[24].core_layer 	data[24] 	11681
scalar barabasi_100nodes_network.node[24].core_layer 	slots_sent[face$o[1]->client[24]] 	12218249
scalar barabasi_100nodes_network.node[24].core_layer 	slots_sent[face$o[2]->node[21]] 	0
scalar barabasi_100nodes_network.node[24].content_store 	p_hit[24] 	0.41345719307055
scalar barabasi_100nodes_network.node[24].content_store 	hits[24] 	8234
scalar barabasi_100nodes_network.node[24].content_store 	misses[24] 	11681
scalar barabasi_100nodes_network.node[24].content_store 	decision_yes[24] 	6747
scalar barabasi_100nodes_network.node[24].content_store 	decision_no[24] 	4934
scalar barabasi_100nodes_network.node[24].content_store 	decision_ratio[24] 	0.57760465713552
scalar barabasi_100nodes_network.node[24].proactive_component 	hdistance[24].proactive_component 	5.7243412132288
scalar barabasi_100nodes_network.node[24].proactive_component 	downloads[24].proactive_component 	16963
scalar barabasi_100nodes_network.node[24].proactive_component 	avg_time[24].proactive_component 	0
scalar barabasi_100nodes_network.node[25].core_layer 	interests[25] 	37103
scalar barabasi_100nodes_network.node[25].core_layer 	data[25] 	23453
scalar barabasi_100nodes_network.node[25].core_layer 	slots_sent[face$o[1]->client[25]] 	11658640
scalar barabasi_100nodes_network.node[25].core_layer 	slots_sent[face$o[2]->node[2]] 	0
scalar barabasi_100nodes_network.node[25].core_layer 	slots_sent[face$o[3]->node[38]] 	8237177
scalar barabasi_100nodes_network.node[25].content_store 	p_hit[25] 	0.23345821092634
scalar barabasi_100nodes_network.node[25].content_store 	hits[25] 	8662
scalar barabasi_100nodes_network.node[25].content_store 	misses[25] 	28441
scalar barabasi_100nodes_network.node[25].content_store 	decision_yes[25] 	12977
scalar barabasi_100nodes_network.node[25].content_store 	decision_no[25] 	10476
scalar barabasi_100nodes_network.node[25].content_store 	decision_ratio[25] 	0.55331940476698
scalar barabasi_100nodes_network.node[25].proactive_component 	hdistance[25].proactive_component 	4.2341918418488
scalar barabasi_100nodes_network.node[25].proactive_component 	downloads[25].proactive_component 	35915
scalar barabasi_100nodes_network.node[25].proactive_component 	avg_time[25].proactive_component 	0
scalar barabasi_100nodes_network.node[26].core_layer 	interests[26] 	69409
scalar barabasi_100nodes_network.node[26].core_layer 	data[26] 	45246
scalar barabasi_100nodes_network.node[26].core_layer 	slots_sent[face$o[1]->client[26]] 	11257124
scalar barabasi_100nodes_network.node[26].core_layer 	slots_sent[face$o[2]->node[2]] 	0
scalar barabasi_100nodes_network.node[26].core_layer 	slots_sent[face$o[3]->node[77]] 	15971946
scalar barabasi_100nodes_network.node[26].core_layer 	slots_sent[face$o[4]->node[91]] 	8298163
scalar barabasi_100nodes_network.node[26].content_store 	p_hit[26] 	0.13459349652062
scalar barabasi_100nodes_network.node[26].content_store 	hits[26] 	9342
scalar barabasi_100nodes_network.node[26].content_store 	misses[26] 	60067
scalar barabasi_100nodes_network.node[26].content_store 	decision_yes[26] 	24891
scalar barabasi_100nodes_network.node[26].content_store 	decision_no[26] 	20355
scalar barabasi_100nodes_network.node[26].content_store 	decision_ratio[26] 	0.550125977987
scalar barabasi_100nodes_network.node[26].proactive_component 	hdistance[26].proactive_component 	4.238786336274
scalar barabasi_100nodes_network.node[26].proactive_component 	downloads[26].proactive_component 	69937
scalar barabasi_100nodes_network.node[26].proactive_component 	avg_time[26].proactive_component 	0
scalar barabasi_100nodes_network.node[27].core_layer 	interests[27] 	36317
scalar barabasi_100nodes_network.node[27].core_layer 	data[27] 	22754
scalar barabasi_100nodes_network.node[27].core_layer 	slots_sent[face$o[1]->client[27]] 	12067337
scalar barabasi_100nodes_network.node[27].core_layer 	slots_sent[face$o[2]->node[4]] 	0
scalar barabasi_100nodes_network.node[27].core_layer 	slots_sent[face$o[3]->node[99]] 	8361084
scalar barabasi_100nodes_network.node[27].content_store 	p_hit[27] 	0.24087892722416
scalar barabasi_100nodes_network.node[27].content_store 	hits[27] 	8748
scalar barabasi_100nodes_network.node[27].content_store 	misses[27] 	27569
scalar barabasi_100nodes_network.node[27].content_store 	decision_yes[27] 	12927
scalar barabasi_100nodes_network.node[27].content_store 	decision_no[27] 	9827
scalar barabasi_100nodes_network.node[27].content_store 	decision_ratio[27] 	0.56811989100817
scalar barabasi_100nodes_network.node[27].proactive_component 	hdistance[27].proactive_component 	5.2327912477824
scalar barabasi_100nodes_network.node[27].proactive_component 	downloads[27].proactive_component 	33820
scalar barabasi_100nodes_network.node[27].proactive_component 	avg_time[27].proactive_component 	0
scalar barabasi_100nodes_network.node[28].core_layer 	interests[28] 	20112
scalar barabasi_100nodes_network.node[28].core_layer 	data[28] 	11898
scalar barabasi_100nodes_network.node[28].core_layer 	slots_sent[face$o[1]->client[28]] 	11804756
scalar barabasi_100nodes_network.node[28].core_layer 	slots_sent[face$o[2]->node[0]] 	0
scalar barabasi_100nodes_network.node[28].content_store 	p_hit[28] 	0.40841288782816
scalar barabasi_100nodes_network.node[28].content_store 	hits[28] 	8214
scalar barabasi_100nodes_network.node[28].content_store 	misses[28] 	11898
scalar barabasi_100nodes_network.node[28].content_store 	decision_yes[28] 	6676
scalar barabasi_100nodes_network.node[28].content_store 	decision_no[28] 	5222
scalar barabasi_100nodes_network.node[28].content_store 	decision_ratio[28] 	0.5611027063372
scalar barabasi_100nodes_network.node[28].proactive_component 	hdistance[28].proactive_component 	4.7156269096161
scalar barabasi_100nodes_network.node[28].proactive_component 	downloads[28].proactive_component 	18001
scalar barabasi_100nodes_network.node[28].proactive_component 	avg_time[28].proactive_component 	0
scalar barabasi_100nodes_network.node[29].core_layer 	interests[29] 	20136
scalar barabasi_100nodes_network.node[29].core_layer 	data[29] 	11974
scalar barabasi_100nodes_network.node[29].core_layer 	slots_sent[face$o[1]->client[29]] 	11629470
scalar barabasi_100nodes_network.node[29].core_layer 	slots_sent[face$o[2]->node[2]] 	0
scalar barabasi_100nodes_network.node[29].content_store 	p_hit[29] 	0.40534366309098
scalar barabasi_100nodes_network.node[29].content_store 	hits[29] 	8162
scalar barabasi_100nodes_network.node[29].content_store 	misses[29] 	11974
scalar barabasi_100nodes_network.node[29].content_store 	decision_yes[29] 	6661
scalar barabasi_100nodes_network.node[29].content_store 	decision_no[29] 	5313
scalar barabasi_100nodes_network.node[29].content_store 	decision_ratio[29] 	0.55628862535494
scalar barabasi_100nodes_network.node[29].proactive_component 	hdistance[29].proactive_component 	4.2340735151449
scalar barabasi_100nodes_network.node[29].proactive_component 	downloads[29].proactive_component 	18554
scalar barabasi_100nodes_network.node[29].proactive_component 	avg_time[29].proactive_component 	0
scalar barabasi_100nodes_network.node[30].core_layer 	interests[30] 	35734
scalar barabasi_100nodes_network.node[30].core_layer 	data[30] 	22368
scalar barabasi_100nodes_network.node[30].core_layer 	slots_sent[face$o[1]->client[30]] 	12013989
scalar barabasi_100nodes_network.node[30].core_layer 	slots_sent[face$o[2]->node[4]] 	0
scalar barabasi_100nodes_network.node[30].core_layer 	slots_sent[face$o[3]->node[88]] 	8089277
scalar barabasi_100nodes_network.node[30].content_store 	p_hit[30] 	0.24318576145967
scalar barabasi_100nodes_network.node[30].content_store 	hits[30] 	8690
scalar barabasi_100nodes_network.node[30].content_store 	misses[30] 	27044
scalar barabasi_100nodes_network.node[30].content_store 	decision_yes[30] 	12700
scalar barabasi_100nodes_network.node[30].content_store 	decision_no[30] 	9668
scalar barabasi_100nodes_network.node[30].content_store 	decision_ratio[30] 	0.56777539341917
scalar barabasi_100nodes_network.node[30].proactive_component 	hdistance[30].proactive_component 	5.2359826205185
scalar barabasi_100nodes_network.node[30].proactive_component 	downloads[30].proactive_component 	33833
scalar barabasi_100nodes_network.node[30].proactive_component 	avg_time[30].proactive_component 	0
scalar barabasi_100nodes_network.node[31].core_layer 	interests[31] 	65856
scalar barabasi_100nodes_network.node[31].core_layer 	data[31] 	43013
scalar barabasi_100nodes_network.node[31].core_layer 	slots_sent[face$o[1]->client[31]] 	11173424
scalar barabasi_100nodes_network.node[31].core_layer 	slots_sent[face$o[2]->node[7]] 	0
scalar barabasi_100nodes_network.node[31].core_layer 	slots_sent[face$o[3]->node[65]] 	21315522
scalar barabasi_100nodes_network.node[31].content_store 	p_hit[31] 	0.1343537414966
scalar barabasi_100nodes_network.node[31].content_store 	hits[31] 	8848
scalar barabasi_100nodes_network.node[31].content_store 	misses[31] 	57008
scalar barabasi_100nodes_network.node[31].content_store 	decision_yes[31] 	23154
scalar barabasi_100nodes_network.node[31].content_store 	decision_no[31] 	19859
scalar barabasi_100nodes_network.node[31].content_store 	decision_ratio[31] 	0.53830237370097
scalar barabasi_100nodes_network.node[31].proactive_component 	hdistance[31].proactive_component 	3.8834237194493
scalar barabasi_100nodes_network.node[31].proactive_component 	downloads[31].proactive_component 	68779
scalar barabasi_100nodes_network.node[31].proactive_component 	avg_time[31].proactive_component 	0
scalar barabasi_100nodes_network.node[32].core_layer 	interests[32] 	53789
scalar barabasi_100nodes_network.node[32].core_layer 	data[32] 	34608
scalar barabasi_100nodes_network.node[32].core_layer 	slots_sent[face$o[1]->client[32]] 	11426406
scalar barabasi_100nodes_network.node[32].core_layer 	slots_sent[face$o[2]->node[2]] 	0
scalar barabasi_100nodes_network.node[32].core_layer 	slots_sent[face$o[3]->node[43]] 	8449302
scalar barabasi_100nodes_network.node[32].core_layer 	slots_sent[face$o[4]->node[64]] 	8237779
scalar barabasi_100nodes_network.node[32].content_store 	p_hit[32] 	0.17085277659001
scalar barabasi_100nodes_network.node[32].content_store 	hits[32] 	9190
scalar barabasi_100nodes_network.node[32].content_store 	misses[32] 	44599
scalar barabasi_100nodes_network.node[32].content_store 	decision_yes[32] 	19094
scalar barabasi_100nodes_network.node[32].content_store 	decision_no[32] 	15514
scalar barabasi_100nodes_network.node[32].content_store 	decision_ratio[32] 	0.55172214516875
scalar barabasi_100nodes_network.node[32].proactive_component 	hdistance[32].proactive_component 	4.2359239676313
scalar barabasi_100nodes_network.node[32].proactive_component 	downloads[32].proactive_component 	52767
scalar barabasi_100nodes_network.node[32].proactive_component 	avg_time[32].proactive_component 	0
scalar barabasi_100nodes_network.node[33].core_layer 	interests[33] 	20160
scalar barabasi_100nodes_network.node[33].core_layer 	data[33] 	12028
scalar barabasi_100nodes_network.node[33].core_layer 	slots_sent[face$o[1]->client[33]] 	11650776
scalar barabasi_100nodes_network.node[33].core_layer 	slots_sent[face$o[2]->node[2]] 	0
scalar barabasi_100nodes_network.node[33].content_store 	p_hit[33] 	0.40337301587302
scalar barabasi_100nodes_network.node[33].content_store 	hits[33] 	8132
scalar barabasi_100nodes_network.node[33].content_store 	misses[33] 	12028
scalar barabasi_100nodes_network.node[33].content_store 	decision_yes[33] 	6712
scalar barabasi_100nodes_network.node[33].content_store 	decision_no[33] 	5316
scalar barabasi_100nodes_network.node[33].content_store 	decision_ratio[33] 	0.55803126039242
scalar barabasi_100nodes_network.node[33].proactive_component 	hdistance[33].proactive_component 	4.236746789595
scalar barabasi_100nodes_network.node[33].proactive_component 	downloads[33].proactive_component 	18222
scalar barabasi_100nodes_network.node[33].proactive_component 	avg_time[33].proactive_component 	0
scalar barabasi_100nodes_network.node[34].core_layer 	interests[34] 	20082
scalar barabasi_100nodes_network.node[34].core_layer 	data[34] 	11912
scalar barabasi_100nodes_network.node[34].core_layer 	slots_sent[face$o[1]->client[34]] 	11734002
scalar barabasi_100nodes_network.node[34].core_layer 	slots_sent[face$o[2]->node[2]] 	0
scalar barabasi_100nodes_network.node[34].content_store 	p_hit[34] 	0.40683198884573
scalar barabasi_100nodes_network.node[34].content_store 	hits[34] 	8170
scalar barabasi_100nodes_network.node[34].content_store 	misses[34] 	11912
scalar barabasi_100nodes_network.node[34].content_store 	decision_yes[34] 	6674
scalar barabasi_100nodes_network.node[34].content_store 	decision_no[34] 	5238
scalar barabasi_100nodes_network.node[34].content_store 	decision_ratio[34] 	0.56027535258563
scalar barabasi_100nodes_network.node[34].proactive_component 	hdistance[34].proactive_component 	4.2363626563174
scalar barabasi_100nodes_network.node[34].proactive_component 	downloads[34].proactive_component 	18552
scalar barabasi_100nodes_network.node[34].proactive_component 	avg_time[34].proactive_component 	0
scalar barabasi_100nodes_network.node[35].core_layer 	interests[35] 	36644
scalar barabasi_100nodes_network.node[35].core_layer 	data[35] 	23065
scalar barabasi_100nodes_network.node[35].core_layer 	slots_sent[face$o[1]->client[35]] 	11978910
scalar barabasi_100nodes_network.node[35].core_layer 	slots_sent[face$o[2]->node[5]] 	0
scalar barabasi_100nodes_network.node[35].core_layer 	slots_sent[face$o[3]->node[50]] 	8478148
scalar barabasi_100nodes_network.node[35].content_store 	p_hit[35] 	0.23651893898046
scalar barabasi_100nodes_network.node[35].content_store 	hits[35] 	8667
scalar barabasi_100nodes_network.node[35].content_store 	misses[35] 	27977
scalar barabasi_100nodes_network.node[35].content_store 	decision_yes[35] 	13080
scalar barabasi_100nodes_network.node[35].content_store 	decision_no[35] 	9985
scalar barabasi_100nodes_network.node[35].content_store 	decision_ratio[35] 	0.56709299804899
scalar barabasi_100nodes_network.node[35].proactive_component 	hdistance[35].proactive_component 	5.7317782543553
scalar barabasi_100nodes_network.node[35].proactive_component 	downloads[35].proactive_component 	34039
scalar barabasi_100nodes_network.node[35].proactive_component 	avg_time[35].proactive_component 	0
scalar barabasi_100nodes_network.node[36].core_layer 	interests[36] 	36980
scalar barabasi_100nodes_network.node[36].core_layer 	data[36] 	23339
scalar barabasi_100nodes_network.node[36].core_layer 	slots_sent[face$o[1]->client[36]] 	11587755
scalar barabasi_100nodes_network.node[36].core_layer 	slots_sent[face$o[2]->node[2]] 	0
scalar barabasi_100nodes_network.node[36].core_layer 	slots_sent[face$o[3]->node[75]] 	8285157
scalar barabasi_100nodes_network.node[36].content_store 	p_hit[36] 	0.23363980530016
scalar barabasi_100nodes_network.node[36].content_store 	hits[36] 	8640
scalar barabasi_100nodes_network.node[36].content_store 	misses[36] 	28340
scalar barabasi_100nodes_network.node[36].content_store 	decision_yes[36] 	12917
scalar barabasi_100nodes_network.node[36].content_store 	decision_no[36] 	10422
scalar barabasi_100nodes_network.node[36].content_store 	decision_ratio[36] 	0.55345130468315
[...]
scalar barabasi_100nodes_network.client[8] 	downloads[8].real 	14854
scalar barabasi_100nodes_network.client[8] 	avg_time[8].real 	0
scalar barabasi_100nodes_network.client[9] 	hdistance[9].real 	2.1777570342712
scalar barabasi_100nodes_network.client[9] 	downloads[9].real 	14998
scalar barabasi_100nodes_network.client[9] 	avg_time[9].real 	0
scalar barabasi_100nodes_network.client[10] 	hdistance[10].real 	1.4971585210938
scalar barabasi_100nodes_network.client[10] 	downloads[10].real 	14957
scalar barabasi_100nodes_network.client[10] 	avg_time[10].real 	0
scalar barabasi_100nodes_network.client[11] 	hdistance[11].real 	1.7959659166556
scalar barabasi_100nodes_network.client[11] 	downloads[11].real 	15022
scalar barabasi_100nodes_network.client[11] 	avg_time[11].real 	0
scalar barabasi_100nodes_network.client[12] 	hdistance[12].real 	1.9711851999734
scalar barabasi_100nodes_network.client[12] 	downloads[12].real 	15027
scalar barabasi_100nodes_network.client[12] 	avg_time[12].real 	0
scalar barabasi_100nodes_network.client[13] 	hdistance[13].real 	1.4690835850957
scalar barabasi_100nodes_network.client[13] 	downloads[13].real 	14895
scalar barabasi_100nodes_network.client[13] 	avg_time[13].real 	0
scalar barabasi_100nodes_network.client[14] 	hdistance[14].real 	1.6565477811054
scalar barabasi_100nodes_network.client[14] 	downloads[14].real 	14692
scalar barabasi_100nodes_network.client[14] 	avg_time[14].real 	0
scalar barabasi_100nodes_network.client[15] 	hdistance[15].real 	1.560805475125
scalar barabasi_100nodes_network.client[15] 	downloads[15].real 	15196
scalar barabasi_100nodes_network.client[15] 	avg_time[15].real 	0
scalar barabasi_100nodes_network.client[16] 	hdistance[16].real 	1.7627788571046
scalar barabasi_100nodes_network.client[16] 	downloads[16].real 	14927
scalar barabasi_100nodes_network.client[16] 	avg_time[16].real 	0
scalar barabasi_100nodes_network.client[17] 	hdistance[17].real 	1.6688799463447
scalar barabasi_100nodes_network.client[17] 	downloads[17].real 	14910
scalar barabasi_100nodes_network.client[17] 	avg_time[17].real 	0
scalar barabasi_100nodes_network.client[18] 	hdistance[18].real 	1.7699240986717
scalar barabasi_100nodes_network.client[18] 	downloads[18].real 	14756
scalar barabasi_100nodes_network.client[18] 	avg_time[18].real 	0
scalar barabasi_100nodes_network.client[19] 	hdistance[19].real 	2.1413953488372
scalar barabasi_100nodes_network.client[19] 	downloads[19].real 	15050
scalar barabasi_100nodes_network.client[19] 	avg_time[19].real 	0
scalar barabasi_100nodes_network.client[20] 	hdistance[20].real 	1.9971923256902
scalar barabasi_100nodes_network.client[20] 	downloads[20].real 	14959
scalar barabasi_100nodes_network.client[20] 	avg_time[20].real 	0
scalar barabasi_100nodes_network.client[21] 	hdistance[21].real 	1.889378757515
scalar barabasi_100nodes_network.client[21] 	downloads[21].real 	14970
scalar barabasi_100nodes_network.client[21] 	avg_time[21].real 	0
scalar barabasi_100nodes_network.client[22] 	hdistance[22].real 	1.8387724952995
scalar barabasi_100nodes_network.client[22] 	downloads[22].real 	14892
scalar barabasi_100nodes_network.client[22] 	avg_time[22].real 	0
scalar barabasi_100nodes_network.client[23] 	hdistance[23].real 	1.7950607448715
scalar barabasi_100nodes_network.client[23] 	downloads[23].real 	15063
scalar barabasi_100nodes_network.client[23] 	avg_time[23].real 	0
scalar barabasi_100nodes_network.client[24] 	hdistance[24].real 	2.1336359388559
scalar barabasi_100nodes_network.client[24] 	downloads[24].real 	14981
scalar barabasi_100nodes_network.client[24] 	avg_time[24].real 	0
scalar barabasi_100nodes_network.client[25] 	hdistance[25].real 	1.6969616204691
scalar barabasi_100nodes_network.client[25] 	downloads[25].real 	15008
scalar barabasi_100nodes_network.client[25] 	avg_time[25].real 	0
scalar barabasi_100nodes_network.client[26] 	hdistance[26].real 	1.7673058615531
scalar barabasi_100nodes_network.client[26] 	downloads[26].real 	14706
scalar barabasi_100nodes_network.client[26] 	avg_time[26].real 	0
scalar barabasi_100nodes_network.client[27] 	hdistance[27].real 	1.9898143804865
scalar barabasi_100nodes_network.client[27] 	downloads[27].real 	14923
scalar barabasi_100nodes_network.client[27] 	avg_time[27].real 	0
scalar barabasi_100nodes_network.client[28] 	hdistance[28].real 	1.8257891202149
scalar barabasi_100nodes_network.client[28] 	downloads[28].real 	14890
scalar barabasi_100nodes_network.client[28] 	avg_time[28].real 	0
scalar barabasi_100nodes_network.client[29] 	hdistance[29].real 	1.6551305403764
scalar barabasi_100nodes_network.client[29] 	downloads[29].real 	14823
scalar barabasi_100nodes_network.client[29] 	avg_time[29].real 	0
scalar barabasi_100nodes_network.client[30] 	hdistance[30].real 	1.9937411669695
scalar barabasi_100nodes_network.client[30] 	downloads[30].real 	14859
scalar barabasi_100nodes_network.client[30] 	avg_time[30].real 	0
scalar barabasi_100nodes_network.client[31] 	hdistance[31].real 	1.6558650241028
scalar barabasi_100nodes_network.client[31] 	downloads[31].real 	14936
scalar barabasi_100nodes_network.client[31] 	avg_time[31].real 	0
scalar barabasi_100nodes_network.client[32] 	hdistance[32].real 	1.7428070884711
scalar barabasi_100nodes_network.client[32] 	downloads[32].real 	14841
scalar barabasi_100nodes_network.client[32] 	avg_time[32].real 	0
scalar barabasi_100nodes_network.client[33] 	hdistance[33].real 	1.65447318782
scalar barabasi_100nodes_network.client[33] 	downloads[33].real 	14844
scalar barabasi_100nodes_network.client[33] 	avg_time[33].real 	0
scalar barabasi_100nodes_network.client[34] 	hdistance[34].real 	1.6362840204797
scalar barabasi_100nodes_network.client[34] 	downloads[34].real 	14844
scalar barabasi_100nodes_network.client[34] 	avg_time[34].real 	0
scalar barabasi_100nodes_network.client[35] 	hdistance[35].real 	2.2032476682547
scalar barabasi_100nodes_network.client[35] 	downloads[35].real 	14903
scalar barabasi_100nodes_network.client[35] 	avg_time[35].real 	0
scalar barabasi_100nodes_network.client[36] 	hdistance[36].real 	1.6970307671638
scalar barabasi_100nodes_network.client[36] 	downloads[36].real 	14886
scalar barabasi_100nodes_network.client[36] 	avg_time[36].real 	0
scalar barabasi_100nodes_network.client[37] 	hdistance[37].real 	1.8533387129312
scalar barabasi_100nodes_network.client[37] 	downloads[37].real 	14871
scalar barabasi_100nodes_network.client[37] 	avg_time[37].real 	0
scalar barabasi_100nodes_network.client[38] 	hdistance[38].real 	1.9559651474531
scalar barabasi_100nodes_network.client[38] 	downloads[38].real 	14920
scalar barabasi_100nodes_network.client[38] 	avg_time[38].real 	0
scalar barabasi_100nodes_network.client[39] 	hdistance[39].real 	1.987031408308
scalar barabasi_100nodes_network.client[39] 	downloads[39].real 	14805
scalar barabasi_100nodes_network.client[39] 	avg_time[39].real 	0
scalar barabasi_100nodes_network.client[40] 	hdistance[40].real 	1.7022638769718
scalar barabasi_100nodes_network.client[40] 	downloads[40].real 	15151
scalar barabasi_100nodes_network.client[40] 	avg_time[40].real 	0
scalar barabasi_100nodes_network.client[41] 	hdistance[41].real 	1.6462744572501
scalar barabasi_100nodes_network.client[41] 	downloads[41].real 	14924
scalar barabasi_100nodes_network.client[41] 	avg_time[41].real 	0
scalar barabasi_100nodes_network.client[42] 	hdistance[42].real 	1.6824040066778
scalar barabasi_100nodes_network.client[42] 	downloads[42].real 	14975
scalar barabasi_100nodes_network.client[42] 	avg_time[42].real 	0
scalar barabasi_100nodes_network.client[43] 	hdistance[43].real 	1.9767534537726
scalar barabasi_100nodes_network.client[43] 	downloads[43].real 	15056
scalar barabasi_100nodes_network.client[43] 	avg_time[43].real 	0
scalar barabasi_100nodes_network.client[44] 	hdistance[44].real 	1.8470878644339
scalar barabasi_100nodes_network.client[44] 	downloads[44].real 	14989
scalar barabasi_100nodes_network.client[44] 	avg_time[44].real 	0
scalar barabasi_100nodes_network.client[45] 	hdistance[45].real 	1.6251584918252
scalar barabasi_100nodes_network.client[45] 	downloads[45].real 	14985
scalar barabasi_100nodes_network.client[45] 	avg_time[45].real 	0
scalar barabasi_100nodes_network.client[46] 	hdistance[46].real 	1.7728494623656
scalar barabasi_100nodes_network.client[46] 	downloads[46].real 	14880
scalar barabasi_100nodes_network.client[46] 	avg_time[46].real 	0
scalar barabasi_100nodes_network.client[47] 	hdistance[47].real 	1.3258880516685
scalar barabasi_100nodes_network.client[47] 	downloads[47].real 	14864
scalar barabasi_100nodes_network.client[47] 	avg_time[47].real 	0
scalar barabasi_100nodes_network.client[48] 	hdistance[48].real 	1.6572980949826
scalar barabasi_100nodes_network.client[48] 	downloads[48].real 	14908
scalar barabasi_100nodes_network.client[48] 	avg_time[48].real 	0
scalar barabasi_100nodes_network.client[49] 	hdistance[49].real 	1.5323070690703
scalar barabasi_100nodes_network.client[49] 	downloads[49].real 	14811
scalar barabasi_100nodes_network.client[49] 	avg_time[49].real 	0
scalar barabasi_100nodes_network.client[50] 	hdistance[50].real 	2.5234218604031
scalar barabasi_100nodes_network.client[50] 	downloads[50].real 	14986
scalar barabasi_100nodes_network.client[50] 	avg_time[50].real 	0
scalar barabasi_100nodes_network.client[51] 	hdistance[51].real 	1.7876406739029
scalar barabasi_100nodes_network.client[51] 	downloads[51].real 	15017
scalar barabasi_100nodes_network.client[51] 	avg_time[51].real 	0
scalar barabasi_100nodes_network.client[52] 	hdistance[52].real 	1.9581214878245
scalar barabasi_100nodes_network.client[52] 	downloads[52].real 	14948
scalar barabasi_100nodes_network.client[52] 	avg_time[52].real 	0
scalar barabasi_100nodes_network.client[53] 	hdistance[53].real 	1.98036353987
scalar barabasi_100nodes_network.client[53] 	downloads[53].real 	15074
scalar barabasi_100nodes_network.client[53] 	avg_time[53].real 	0
scalar barabasi_100nodes_network.client[54] 	hdistance[54].real 	1.7367895647544
scalar barabasi_100nodes_network.client[54] 	downloads[54].real 	15026
scalar barabasi_100nodes_network.client[54] 	avg_time[54].real 	0
scalar barabasi_100nodes_network.client[55] 	hdistance[55].real 	1.5480564430245
scalar barabasi_100nodes_network.client[55] 	downloads[55].real 	15024
scalar barabasi_100nodes_network.client[55] 	avg_time[55].real 	0
scalar barabasi_100nodes_network.client[56] 	hdistance[56].real 	1.694128598976
scalar barabasi_100nodes_network.client[56] 	downloads[56].real 	15039
scalar barabasi_100nodes_network.client[56] 	avg_time[56].real 	0
scalar barabasi_100nodes_network.client[57] 	hdistance[57].real 	2.0944657751887
scalar barabasi_100nodes_network.client[57] 	downloads[57].real 	15106
scalar barabasi_100nodes_network.client[57] 	avg_time[57].real 	0
scalar barabasi_100nodes_network.client[58] 	hdistance[58].real 	1.9108560752652
scalar barabasi_100nodes_network.client[58] 	downloads[58].real 	14987
scalar barabasi_100nodes_network.client[58] 	avg_time[58].real 	0
scalar barabasi_100nodes_network.client[59] 	hdistance[59].real 	1.6490303398878
scalar barabasi_100nodes_network.client[59] 	downloads[59].real 	14799
scalar barabasi_100nodes_network.client[59] 	avg_time[59].real 	0
scalar barabasi_100nodes_network.client[60] 	hdistance[60].real 	2.3055237838929
scalar barabasi_100nodes_network.client[60] 	downloads[60].real 	14863
scalar barabasi_100nodes_network.client[60] 	avg_time[60].real 	0
scalar barabasi_100nodes_network.client[61] 	hdistance[61].real 	1.9560007987752
scalar barabasi_100nodes_network.client[61] 	downloads[61].real 	15023
scalar barabasi_100nodes_network.client[61] 	avg_time[61].real 	0
scalar barabasi_100nodes_network.client[62] 	hdistance[62].real 	1.7218364457628
scalar barabasi_100nodes_network.client[62] 	downloads[62].real 	14833
scalar barabasi_100nodes_network.client[62] 	avg_time[62].real 	0
scalar barabasi_100nodes_network.client[63] 	hdistance[63].real 	2.3411183319794
scalar barabasi_100nodes_network.client[63] 	downloads[63].real 	14772
scalar barabasi_100nodes_network.client[63] 	avg_time[63].real 	0
scalar barabasi_100nodes_network.client[64] 	hdistance[64].real 	1.9401652004567
scalar barabasi_100nodes_network.client[64] 	downloads[64].real 	14891
scalar barabasi_100nodes_network.client[64] 	avg_time[64].real 	0
scalar barabasi_100nodes_network.client[65] 	hdistance[65].real 	1.9588688946015
scalar barabasi_100nodes_network.client[65] 	downloads[65].real 	14782
scalar barabasi_100nodes_network.client[65] 	avg_time[65].real 	0
scalar barabasi_100nodes_network.client[66] 	hdistance[66].real 	1.9373907195696
scalar barabasi_100nodes_network.client[66] 	downloads[66].real 	14870
scalar barabasi_100nodes_network.client[66] 	avg_time[66].real 	0
scalar barabasi_100nodes_network.client[67] 	hdistance[67].real 	1.708436641426
scalar barabasi_100nodes_network.client[67] 	downloads[67].real 	14923
scalar barabasi_100nodes_network.client[67] 	avg_time[67].real 	0
scalar barabasi_100nodes_network.client[68] 	hdistance[68].real 	1.9532486533218
scalar barabasi_100nodes_network.client[68] 	downloads[68].real 	15037
scalar barabasi_100nodes_network.client[68] 	avg_time[68].real 	0
scalar barabasi_100nodes_network.client[69] 	hdistance[69].real 	1.5574224021592
scalar barabasi_100nodes_network.client[69] 	downloads[69].real 	14820
scalar barabasi_100nodes_network.client[69] 	avg_time[69].real 	0
scalar barabasi_100nodes_network.client[70] 	hdistance[70].real 	2.3247170695775
scalar barabasi_100nodes_network.client[70] 	downloads[70].real 	14933
scalar barabasi_100nodes_network.client[70] 	avg_time[70].real 	0
scalar barabasi_100nodes_network.client[71] 	hdistance[71].real 	1.8111297351659
scalar barabasi_100nodes_network.client[71] 	downloads[71].real 	14915
scalar barabasi_100nodes_network.client[71] 	avg_time[71].real 	0
scalar barabasi_100nodes_network.client[72] 	hdistance[72].real 	1.9613938498724
scalar barabasi_100nodes_network.client[72] 	downloads[72].real 	14894
scalar barabasi_100nodes_network.client[72] 	avg_time[72].real 	0
scalar barabasi_100nodes_network.client[73] 	hdistance[73].real 	1.8793581616482
scalar barabasi_100nodes_network.client[73] 	downloads[73].real 	15144
scalar barabasi_100nodes_network.client[73] 	avg_time[73].real 	0
scalar barabasi_100nodes_network.client[74] 	hdistance[74].real 	1.8150970905958
scalar barabasi_100nodes_network.client[74] 	downloads[74].real 	15089
scalar barabasi_100nodes_network.client[74] 	avg_time[74].real 	0
scalar barabasi_100nodes_network.client[75] 	hdistance[75].real 	1.9488186356073
scalar barabasi_100nodes_network.client[75] 	downloads[75].real 	15025
scalar barabasi_100nodes_network.client[75] 	avg_time[75].real 	0
scalar barabasi_100nodes_network.client[76] 	hdistance[76].real 	2.1350131375059
scalar barabasi_100nodes_network.client[76] 	downloads[76].real 	14843
scalar barabasi_100nodes_network.client[76] 	avg_time[76].real 	0
scalar barabasi_100nodes_network.client[77] 	hdistance[77].real 	1.9960955595262
scalar barabasi_100nodes_network.client[77] 	downloads[77].real 	15111
scalar barabasi_100nodes_network.client[77] 	avg_time[77].real 	0
scalar barabasi_100nodes_network.client[78] 	hdistance[78].real 	1.7930852118728
scalar barabasi_100nodes_network.client[78] 	downloads[78].real 	15127
scalar barabasi_100nodes_network.client[78] 	avg_time[78].real 	0
scalar barabasi_100nodes_network.client[79] 	hdistance[79].real 	1.639679832043
scalar barabasi_100nodes_network.client[79] 	downloads[79].real 	15242
scalar barabasi_100nodes_network.client[79] 	avg_time[79].real 	0
scalar barabasi_100nodes_network.client[80] 	hdistance[80].real 	2.2789825970549
scalar barabasi_100nodes_network.client[80] 	downloads[80].real 	14940
scalar barabasi_100nodes_network.client[80] 	avg_time[80].real 	0
scalar barabasi_100nodes_network.client[81] 	hdistance[81].real 	1.6245340788072
scalar barabasi_100nodes_network.client[81] 	downloads[81].real 	15024
scalar barabasi_100nodes_network.client[81] 	avg_time[81].real 	0
scalar barabasi_100nodes_network.client[82] 	hdistance[82].real 	1.9364154103853
scalar barabasi_100nodes_network.client[82] 	downloads[82].real 	14925
scalar barabasi_100nodes_network.client[82] 	avg_time[82].real 	0
scalar barabasi_100nodes_network.client[83] 	hdistance[83].real 	1.7842045981581
scalar barabasi_100nodes_network.client[83] 	downloads[83].real 	15093
scalar barabasi_100nodes_network.client[83] 	avg_time[83].real 	0
scalar barabasi_100nodes_network.client[84] 	hdistance[84].real 	2.0489907766341
scalar barabasi_100nodes_network.client[84] 	downloads[84].real 	14962
scalar barabasi_100nodes_network.client[84] 	avg_time[84].real 	0
scalar barabasi_100nodes_network.client[85] 	hdistance[85].real 	1.9673700532596
scalar barabasi_100nodes_network.client[85] 	downloads[85].real 	14833
scalar barabasi_100nodes_network.client[85] 	avg_time[85].real 	0
scalar barabasi_100nodes_network.client[86] 	hdistance[86].real 	1.7713579587202
scalar barabasi_100nodes_network.client[86] 	downloads[86].real 	14971
scalar barabasi_100nodes_network.client[86] 	avg_time[86].real 	0
scalar barabasi_100nodes_network.client[87] 	hdistance[87].real 	2.013619201726
scalar barabasi_100nodes_network.client[87] 	downloads[87].real 	14832
scalar barabasi_100nodes_network.client[87] 	avg_time[87].real 	0
scalar barabasi_100nodes_network.client[88] 	hdistance[88].real 	2.2243272191726
scalar barabasi_100nodes_network.client[88] 	downloads[88].real 	14938
scalar barabasi_100nodes_network.client[88] 	avg_time[88].real 	0
scalar barabasi_100nodes_network.client[89] 	hdistance[89].real 	1.9888837116421
scalar barabasi_100nodes_network.client[89] 	downloads[89].real 	15023
scalar barabasi_100nodes_network.client[89] 	avg_time[89].real 	0
scalar barabasi_100nodes_network.client[90] 	hdistance[90].real 	1.5609984608178
scalar barabasi_100nodes_network.client[90] 	downloads[90].real 	14943
scalar barabasi_100nodes_network.client[90] 	avg_time[90].real 	0
scalar barabasi_100nodes_network.client[91] 	hdistance[91].real 	1.9468177855275
scalar barabasi_100nodes_network.client[91] 	downloads[91].real 	14911
scalar barabasi_100nodes_network.client[91] 	avg_time[91].real 	0
scalar barabasi_100nodes_network.client[92] 	hdistance[92].real 	2.3549255942361
scalar barabasi_100nodes_network.client[92] 	downloads[92].real 	14851
scalar barabasi_100nodes_network.client[92] 	avg_time[92].real 	0
scalar barabasi_100nodes_network.client[93] 	hdistance[93].real 	1.8347791002623
scalar barabasi_100nodes_network.client[93] 	downloads[93].real 	14871
scalar barabasi_100nodes_network.client[93] 	avg_time[93].real 	0
scalar barabasi_100nodes_network.client[94] 	hdistance[94].real 	2.1594749242679
scalar barabasi_100nodes_network.client[94] 	downloads[94].real 	14855
scalar barabasi_100nodes_network.client[94] 	avg_time[94].real 	0
scalar barabasi_100nodes_network.client[95] 	hdistance[95].real 	1.9412585553857
scalar barabasi_100nodes_network.client[95] 	downloads[95].real 	15049
scalar barabasi_100nodes_network.client[95] 	avg_time[95].real 	0
scalar barabasi_100nodes_network.client[96] 	hdistance[96].real 	2.2931243272336
scalar barabasi_100nodes_network.client[96] 	downloads[96].real 	14864
scalar barabasi_100nodes_network.client[96] 	avg_time[96].real 	0
scalar barabasi_100nodes_network.client[97] 	hdistance[97].real 	1.968399251737
scalar barabasi_100nodes_network.client[97] 	downloads[97].real 	14968
scalar barabasi_100nodes_network.client[97] 	avg_time[97].real 	0
scalar barabasi_100nodes_network.client[98] 	hdistance[98].real 	2.2246579072775
scalar barabasi_100nodes_network.client[98] 	downloads[98].real 	14689
scalar barabasi_100nodes_network.client[98] 	avg_time[98].real 	0
scalar barabasi_100nodes_network.client[99] 	hdistance[99].real 	2.2713086027905
scalar barabasi_100nodes_network.client[99] 	downloads[99].real 	15123
scalar barabasi_100nodes_network.client[99] 	avg_time[99].real 	0
