version 2
run General-7-20150722-13:15:17-32165
attr C 1e4
attr D lce
attr F spr
attr R always_highq
attr a 1
attr brates 0.3_0.7_1.5_2.5_3.5
attr configname General
attr ctlg 1e6
attr datetime 20150722-13:15:17
attr experiment General
attr inifile omnetpp.ini
attr iterationvars "$net=barabasi_100nodes, $rep=4, $lambda=100, $a=1, $ctlg=1e6, $brates=0.3_0.7_1.5_2.5_3.5, $F=spr, $ttl=1000, $D=lce, $R=always_highq, $C=1e4, $window=60, $variance=0.05, $mytime=180000"
attr iterationvars2 "$net=barabasi_100nodes, $rep=4, $lambda=100, $a=1, $ctlg=1e6, $brates=0.3_0.7_1.5_2.5_3.5, $F=spr, $ttl=1000, $D=lce, $R=always_highq, $C=1e4, $window=60, $variance=0.05, $mytime=180000, $repetition=0"
attr lambda 100
attr measurement "$net=barabasi_100nodes, $rep=4, $lambda=100, $a=1, $ctlg=1e6, $brates=0.3_0.7_1.5_2.5_3.5, $F=spr, $ttl=1000, $D=lce, $R=always_highq, $C=1e4, $window=60, $variance=0.05, $mytime=180000"
attr mytime 180000
attr net barabasi_100nodes
attr network networks.${net=barabasi_100nodes}_network
attr processid 32165
attr rep 4
attr repetition 0
attr replication #0
attr resultdir results
attr runnumber 7
attr seedset 4
attr ttl 1000
attr variance 0.05
attr window 60

scalar . 	C 	1e4
scalar . 	a 	1
scalar . 	ctlg 	1e6
scalar . 	lambda 	100
scalar . 	mytime 	180000
scalar . 	rep 	4
scalar . 	ttl 	1000
scalar . 	variance 	0.05
scalar . 	window 	60
scalar barabasi_100nodes_network.content_distribution 	repo-0 	82
scalar barabasi_100nodes_network.content_distribution 	repo-1 	48
scalar barabasi_100nodes_network.content_distribution 	repo-2 	74
scalar barabasi_100nodes_network.content_distribution 	repo-3 	16
scalar barabasi_100nodes_network.content_distribution 	repo-4 	98
scalar barabasi_100nodes_network.content_distribution 	repo-5 	25
scalar barabasi_100nodes_network.content_distribution 	repo-6 	58
scalar barabasi_100nodes_network.content_distribution 	repo-7 	99
scalar barabasi_100nodes_network.content_distribution 	repo-8 	26
scalar barabasi_100nodes_network.content_distribution 	repo-9 	66
scalar barabasi_100nodes_network.content_distribution 	repo-10 	46
scalar barabasi_100nodes_network.content_distribution 	repo-11 	54
scalar barabasi_100nodes_network.content_distribution 	repo-12 	77
scalar barabasi_100nodes_network.content_distribution 	repo-13 	73
scalar barabasi_100nodes_network.content_distribution 	repo-14 	75
scalar barabasi_100nodes_network.content_distribution 	repo-15 	52
scalar barabasi_100nodes_network.content_distribution 	repo-16 	2
scalar barabasi_100nodes_network.content_distribution 	repo-17 	32
scalar barabasi_100nodes_network.content_distribution 	repo-18 	19
scalar barabasi_100nodes_network.content_distribution 	repo-19 	21
scalar barabasi_100nodes_network.content_distribution 	repo-20 	11
scalar barabasi_100nodes_network.content_distribution 	repo-21 	86
scalar barabasi_100nodes_network.content_distribution 	repo-22 	1
scalar barabasi_100nodes_network.content_distribution 	repo-23 	18
scalar barabasi_100nodes_network.content_distribution 	repo-24 	24
scalar barabasi_100nodes_network.content_distribution 	repo-25 	28
scalar barabasi_100nodes_network.content_distribution 	repo-26 	40
scalar barabasi_100nodes_network.content_distribution 	repo-27 	76
scalar barabasi_100nodes_network.content_distribution 	repo-28 	22
scalar barabasi_100nodes_network.content_distribution 	repo-29 	34
scalar barabasi_100nodes_network.content_distribution 	repo-30 	5
scalar barabasi_100nodes_network.content_distribution 	repo-31 	51
scalar barabasi_100nodes_network.content_distribution 	repo-32 	88
scalar barabasi_100nodes_network.content_distribution 	repo-33 	85
scalar barabasi_100nodes_network.content_distribution 	repo-34 	49
scalar barabasi_100nodes_network.content_distribution 	repo-35 	45
scalar barabasi_100nodes_network.content_distribution 	repo-36 	71
scalar barabasi_100nodes_network.content_distribution 	repo-37 	7
scalar barabasi_100nodes_network.content_distribution 	repo-38 	6
scalar barabasi_100nodes_network.content_distribution 	repo-39 	79
scalar barabasi_100nodes_network.content_distribution 	repo-40 	38
scalar barabasi_100nodes_network.content_distribution 	repo-41 	83
scalar barabasi_100nodes_network.content_distribution 	repo-42 	10
scalar barabasi_100nodes_network.content_distribution 	repo-43 	61
scalar barabasi_100nodes_network.content_distribution 	repo-44 	62
scalar barabasi_100nodes_network.content_distribution 	repo-45 	36
scalar barabasi_100nodes_network.content_distribution 	repo-46 	94
scalar barabasi_100nodes_network.content_distribution 	repo-47 	0
scalar barabasi_100nodes_network.content_distribution 	repo-48 	47
scalar barabasi_100nodes_network.content_distribution 	repo-49 	89
scalar barabasi_100nodes_network.content_distribution 	repo-50 	41
scalar barabasi_100nodes_network.content_distribution 	repo-51 	81
scalar barabasi_100nodes_network.content_distribution 	repo-52 	59
scalar barabasi_100nodes_network.content_distribution 	repo-53 	72
scalar barabasi_100nodes_network.content_distribution 	repo-54 	37
scalar barabasi_100nodes_network.content_distribution 	repo-55 	13
scalar barabasi_100nodes_network.content_distribution 	repo-56 	65
scalar barabasi_100nodes_network.content_distribution 	repo-57 	53
scalar barabasi_100nodes_network.content_distribution 	repo-58 	97
scalar barabasi_100nodes_network.content_distribution 	repo-59 	67
scalar barabasi_100nodes_network.content_distribution 	repo-60 	57
scalar barabasi_100nodes_network.content_distribution 	repo-61 	50
scalar barabasi_100nodes_network.content_distribution 	repo-62 	35
scalar barabasi_100nodes_network.content_distribution 	repo-63 	20
scalar barabasi_100nodes_network.content_distribution 	repo-64 	60
scalar barabasi_100nodes_network.content_distribution 	repo-65 	4
scalar barabasi_100nodes_network.content_distribution 	repo-66 	91
scalar barabasi_100nodes_network.content_distribution 	repo-67 	43
scalar barabasi_100nodes_network.content_distribution 	repo-68 	3
scalar barabasi_100nodes_network.content_distribution 	repo-69 	29
scalar barabasi_100nodes_network.content_distribution 	repo-70 	9
scalar barabasi_100nodes_network.content_distribution 	repo-71 	39
scalar barabasi_100nodes_network.content_distribution 	repo-72 	63
scalar barabasi_100nodes_network.content_distribution 	repo-73 	55
scalar barabasi_100nodes_network.content_distribution 	repo-74 	56
scalar barabasi_100nodes_network.content_distribution 	repo-75 	87
scalar barabasi_100nodes_network.content_distribution 	repo-76 	27
scalar barabasi_100nodes_network.content_distribution 	repo-77 	95
scalar barabasi_100nodes_network.content_distribution 	repo-78 	31
scalar barabasi_100nodes_network.content_distribution 	repo-79 	80
scalar barabasi_100nodes_network.content_distribution 	repo-80 	14
scalar barabasi_100nodes_network.content_distribution 	repo-81 	8
scalar barabasi_100nodes_network.content_distribution 	repo-82 	69
scalar barabasi_100nodes_network.content_distribution 	repo-83 	44
scalar barabasi_100nodes_network.content_distribution 	repo-84 	96
scalar barabasi_100nodes_network.content_distribution 	repo-85 	17
scalar barabasi_100nodes_network.content_distribution 	repo-86 	15
scalar barabasi_100nodes_network.content_distribution 	repo-87 	78
scalar barabasi_100nodes_network.content_distribution 	repo-88 	93
scalar barabasi_100nodes_network.content_distribution 	repo-89 	42
scalar barabasi_100nodes_network.content_distribution 	repo-90 	64
scalar barabasi_100nodes_network.content_distribution 	repo-91 	84
scalar barabasi_100nodes_network.content_distribution 	repo-92 	33
scalar barabasi_100nodes_network.content_distribution 	repo-93 	70
scalar barabasi_100nodes_network.content_distribution 	repo-94 	92
scalar barabasi_100nodes_network.content_distribution 	repo-95 	23
scalar barabasi_100nodes_network.content_distribution 	repo-96 	68
scalar barabasi_100nodes_network.content_distribution 	repo-97 	90
scalar barabasi_100nodes_network.content_distribution 	repo-98 	30
scalar barabasi_100nodes_network.content_distribution 	repo-99 	12
scalar barabasi_100nodes_network.content_distribution 	client-0 	66
scalar barabasi_100nodes_network.content_distribution 	client-1 	63
scalar barabasi_100nodes_network.content_distribution 	client-2 	51
scalar barabasi_100nodes_network.content_distribution 	client-3 	44
scalar barabasi_100nodes_network.content_distribution 	client-4 	78
scalar barabasi_100nodes_network.content_distribution 	client-5 	90
scalar barabasi_100nodes_network.content_distribution 	client-6 	52
scalar barabasi_100nodes_network.content_distribution 	client-7 	18
scalar barabasi_100nodes_network.content_distribution 	client-8 	69
scalar barabasi_100nodes_network.content_distribution 	client-9 	88
scalar barabasi_100nodes_network.content_distribution 	client-10 	30
scalar barabasi_100nodes_network.content_distribution 	client-11 	53
scalar barabasi_100nodes_network.content_distribution 	client-12 	73
scalar barabasi_100nodes_network.content_distribution 	client-13 	28
scalar barabasi_100nodes_network.content_distribution 	client-14 	89
scalar barabasi_100nodes_network.content_distribution 	client-15 	46
scalar barabasi_100nodes_network.content_distribution 	client-16 	40
scalar barabasi_100nodes_network.content_distribution 	client-17 	94
scalar barabasi_100nodes_network.content_distribution 	client-18 	87
scalar barabasi_100nodes_network.content_distribution 	client-19 	39
scalar barabasi_100nodes_network.content_distribution 	client-20 	82
scalar barabasi_100nodes_network.content_distribution 	client-21 	35
scalar barabasi_100nodes_network.content_distribution 	client-22 	84
scalar barabasi_100nodes_network.content_distribution 	client-23 	54
scalar barabasi_100nodes_network.content_distribution 	client-24 	20
scalar barabasi_100nodes_network.content_distribution 	client-25 	5
scalar barabasi_100nodes_network.content_distribution 	client-26 	4
scalar barabasi_100nodes_network.content_distribution 	client-27 	43
scalar barabasi_100nodes_network.content_distribution 	client-28 	1
scalar barabasi_100nodes_network.content_distribution 	client-29 	49
scalar barabasi_100nodes_network.content_distribution 	client-30 	15
scalar barabasi_100nodes_network.content_distribution 	client-31 	12
scalar barabasi_100nodes_network.content_distribution 	client-32 	86
scalar barabasi_100nodes_network.content_distribution 	client-33 	24
scalar barabasi_100nodes_network.content_distribution 	client-34 	19
scalar barabasi_100nodes_network.content_distribution 	client-35 	16
scalar barabasi_100nodes_network.content_distribution 	client-36 	38
scalar barabasi_100nodes_network.content_distribution 	client-37 	62
scalar barabasi_100nodes_network.content_distribution 	client-38 	57
scalar barabasi_100nodes_network.content_distribution 	client-39 	95
scalar barabasi_100nodes_network.content_distribution 	client-40 	2
scalar barabasi_100nodes_network.content_distribution 	client-41 	68
scalar barabasi_100nodes_network.content_distribution 	client-42 	6
scalar barabasi_100nodes_network.content_distribution 	client-43 	55
scalar barabasi_100nodes_network.content_distribution 	client-44 	80
scalar barabasi_100nodes_network.content_distribution 	client-45 	72
scalar barabasi_100nodes_network.content_distribution 	client-46 	41
scalar barabasi_100nodes_network.content_distribution 	client-47 	14
scalar barabasi_100nodes_network.content_distribution 	client-48 	96
scalar barabasi_100nodes_network.content_distribution 	client-49 	59
scalar barabasi_100nodes_network.content_distribution 	client-50 	21
scalar barabasi_100nodes_network.content_distribution 	client-51 	67
scalar barabasi_100nodes_network.content_distribution 	client-52 	27
scalar barabasi_100nodes_network.content_distribution 	client-53 	32
scalar barabasi_100nodes_network.content_distribution 	client-54 	37
scalar barabasi_100nodes_network.content_distribution 	client-55 	23
scalar barabasi_100nodes_network.content_distribution 	client-56 	79
scalar barabasi_100nodes_network.content_distribution 	client-57 	34
scalar barabasi_100nodes_network.content_distribution 	client-58 	92
scalar barabasi_100nodes_network.content_distribution 	client-59 	42
scalar barabasi_100nodes_network.content_distribution 	client-60 	11
scalar barabasi_100nodes_network.content_distribution 	client-61 	65
scalar barabasi_100nodes_network.content_distribution 	client-62 	97
scalar barabasi_100nodes_network.content_distribution 	client-63 	50
scalar barabasi_100nodes_network.content_distribution 	client-64 	83
scalar barabasi_100nodes_network.content_distribution 	client-65 	60
scalar barabasi_100nodes_network.content_distribution 	client-66 	36
scalar barabasi_100nodes_network.content_distribution 	client-67 	71
scalar barabasi_100nodes_network.content_distribution 	client-68 	74
scalar barabasi_100nodes_network.content_distribution 	client-69 	45
scalar barabasi_100nodes_network.content_distribution 	client-70 	99
scalar barabasi_100nodes_network.content_distribution 	client-71 	76
scalar barabasi_100nodes_network.content_distribution 	client-72 	22
scalar barabasi_100nodes_network.content_distribution 	client-73 	7
scalar barabasi_100nodes_network.content_distribution 	client-74 	58
scalar barabasi_100nodes_network.content_distribution 	client-75 	93
scalar barabasi_100nodes_network.content_distribution 	client-76 	75
scalar barabasi_100nodes_network.content_distribution 	client-77 	8
scalar barabasi_100nodes_network.content_distribution 	client-78 	47
scalar barabasi_100nodes_network.content_distribution 	client-79 	98
scalar barabasi_100nodes_network.content_distribution 	client-80 	91
scalar barabasi_100nodes_network.content_distribution 	client-81 	33
scalar barabasi_100nodes_network.content_distribution 	client-82 	81
scalar barabasi_100nodes_network.content_distribution 	client-83 	25
scalar barabasi_100nodes_network.content_distribution 	client-84 	70
scalar barabasi_100nodes_network.content_distribution 	client-85 	9
scalar barabasi_100nodes_network.content_distribution 	client-86 	64
scalar barabasi_100nodes_network.content_distribution 	client-87 	26
scalar barabasi_100nodes_network.content_distribution 	client-88 	13
scalar barabasi_100nodes_network.content_distribution 	client-89 	3
scalar barabasi_100nodes_network.content_distribution 	client-90 	48
scalar barabasi_100nodes_network.content_distribution 	client-91 	61
scalar barabasi_100nodes_network.content_distribution 	client-92 	77
scalar barabasi_100nodes_network.content_distribution 	client-93 	29
scalar barabasi_100nodes_network.content_distribution 	client-94 	17
scalar barabasi_100nodes_network.content_distribution 	client-95 	56
scalar barabasi_100nodes_network.content_distribution 	client-96 	31
scalar barabasi_100nodes_network.content_distribution 	client-97 	10
scalar barabasi_100nodes_network.content_distribution 	client-98 	0
scalar barabasi_100nodes_network.content_distribution 	client-99 	85
scalar barabasi_100nodes_network.content_distribution 	repo-0_card 	249422
scalar barabasi_100nodes_network.content_distribution 	repo-0_price 	0
scalar barabasi_100nodes_network.content_distribution 	repo-1_card 	250186
scalar barabasi_100nodes_network.content_distribution 	repo-1_price 	0
scalar barabasi_100nodes_network.content_distribution 	repo-2_card 	250640
scalar barabasi_100nodes_network.content_distribution 	repo-2_price 	0
scalar barabasi_100nodes_network.content_distribution 	repo-3_card 	249752
scalar barabasi_100nodes_network.content_distribution 	repo-3_price 	0
scalar barabasi_100nodes_network.content_distribution 	repo-4_card 	0
scalar barabasi_100nodes_network.content_distribution 	repo-4_price 	0
scalar barabasi_100nodes_network.content_distribution 	repo-5_card 	0
scalar barabasi_100nodes_network.content_distribution 	repo-5_price 	0
scalar barabasi_100nodes_network.content_distribution 	repo-6_card 	0
scalar barabasi_100nodes_network.content_distribution 	repo-6_price 	0
scalar barabasi_100nodes_network.content_distribution 	repo-7_card 	0
scalar barabasi_100nodes_network.content_distribution 	repo-7_price 	0
scalar barabasi_100nodes_network.content_distribution 	repo-8_card 	0
scalar barabasi_100nodes_network.content_distribution 	repo-8_price 	0
scalar barabasi_100nodes_network.content_distribution 	repo-9_card 	0
scalar barabasi_100nodes_network.content_distribution 	repo-9_price 	0
scalar barabasi_100nodes_network.content_distribution 	repo-10_card 	0
scalar barabasi_100nodes_network.content_distribution 	repo-10_price 	0
scalar barabasi_100nodes_network.content_distribution 	repo-11_card 	0
scalar barabasi_100nodes_network.content_distribution 	repo-11_price 	0
scalar barabasi_100nodes_network.content_distribution 	repo-12_card 	0
scalar barabasi_100nodes_network.content_distribution 	repo-12_price 	0
scalar barabasi_100nodes_network.content_distribution 	repo-13_card 	0
scalar barabasi_100nodes_network.content_distribution 	repo-13_price 	0
scalar barabasi_100nodes_network.content_distribution 	repo-14_card 	0
scalar barabasi_100nodes_network.content_distribution 	repo-14_price 	0
scalar barabasi_100nodes_network.content_distribution 	repo-15_card 	0
scalar barabasi_100nodes_network.content_distribution 	repo-15_price 	0
scalar barabasi_100nodes_network.content_distribution 	repo-16_card 	0
scalar barabasi_100nodes_network.content_distribution 	repo-16_price 	0
scalar barabasi_100nodes_network.content_distribution 	repo-17_card 	0
scalar barabasi_100nodes_network.content_distribution 	repo-17_price 	0
scalar barabasi_100nodes_network.content_distribution 	repo-18_card 	0
scalar barabasi_100nodes_network.content_distribution 	repo-18_price 	0
scalar barabasi_100nodes_network.content_distribution 	repo-19_card 	0
scalar barabasi_100nodes_network.content_distribution 	repo-19_price 	0
scalar barabasi_100nodes_network.content_distribution 	repo-20_card 	0
scalar barabasi_100nodes_network.content_distribution 	repo-20_price 	0
scalar barabasi_100nodes_network.content_distribution 	repo-21_card 	0
scalar barabasi_100nodes_network.content_distribution 	repo-21_price 	0
scalar barabasi_100nodes_network.content_distribution 	repo-22_card 	0
scalar barabasi_100nodes_network.content_distribution 	repo-22_price 	0
scalar barabasi_100nodes_network.content_distribution 	repo-23_card 	0
scalar barabasi_100nodes_network.content_distribution 	repo-23_price 	0
scalar barabasi_100nodes_network.content_distribution 	repo-24_card 	0
scalar barabasi_100nodes_network.content_distribution 	repo-24_price 	0
scalar barabasi_100nodes_network.content_distribution 	repo-25_card 	0
scalar barabasi_100nodes_network.content_distribution 	repo-25_price 	0
scalar barabasi_100nodes_network.content_distribution 	repo-26_card 	0
scalar barabasi_100nodes_network.content_distribution 	repo-26_price 	0
scalar barabasi_100nodes_network.content_distribution 	repo-27_card 	0
scalar barabasi_100nodes_network.content_distribution 	repo-27_price 	0
scalar barabasi_100nodes_network.content_distribution 	repo-28_card 	0
scalar barabasi_100nodes_network.content_distribution 	repo-28_price 	0
scalar barabasi_100nodes_network.content_distribution 	repo-29_card 	0
scalar barabasi_100nodes_network.content_distribution 	repo-29_price 	0
scalar barabasi_100nodes_network.content_distribution 	repo-30_card 	0
scalar barabasi_100nodes_network.content_distribution 	repo-30_price 	0
scalar barabasi_100nodes_network.content_distribution 	repo-31_card 	0
scalar barabasi_100nodes_network.content_distribution 	repo-31_price 	0
scalar barabasi_100nodes_network.content_distribution 	repo-32_card 	0
scalar barabasi_100nodes_network.content_distribution 	repo-32_price 	0
scalar barabasi_100nodes_network.content_distribution 	repo-33_card 	0
scalar barabasi_100nodes_network.content_distribution 	repo-33_price 	0
scalar barabasi_100nodes_network.content_distribution 	repo-34_card 	0
scalar barabasi_100nodes_network.content_distribution 	repo-34_price 	0
scalar barabasi_100nodes_network.content_distribution 	repo-35_card 	0
scalar barabasi_100nodes_network.content_distribution 	repo-35_price 	0
scalar barabasi_100nodes_network.content_distribution 	repo-36_card 	0
scalar barabasi_100nodes_network.content_distribution 	repo-36_price 	0
scalar barabasi_100nodes_network.content_distribution 	repo-37_card 	0
scalar barabasi_100nodes_network.content_distribution 	repo-37_price 	0
scalar barabasi_100nodes_network.content_distribution 	repo-38_card 	0
scalar barabasi_100nodes_network.content_distribution 	repo-38_price 	0
scalar barabasi_100nodes_network.content_distribution 	repo-39_card 	0
scalar barabasi_100nodes_network.content_distribution 	repo-39_price 	0
scalar barabasi_100nodes_network.content_distribution 	repo-40_card 	0
scalar barabasi_100nodes_network.content_distribution 	repo-40_price 	0
scalar barabasi_100nodes_network.content_distribution 	repo-41_card 	0
scalar barabasi_100nodes_network.content_distribution 	repo-41_price 	0
scalar barabasi_100nodes_network.content_distribution 	repo-42_card 	0
scalar barabasi_100nodes_network.content_distribution 	repo-42_price 	0
scalar barabasi_100nodes_network.content_distribution 	repo-43_card 	0
scalar barabasi_100nodes_network.content_distribution 	repo-43_price 	0
scalar barabasi_100nodes_network.content_distribution 	repo-44_card 	0
scalar barabasi_100nodes_network.content_distribution 	repo-44_price 	0
scalar barabasi_100nodes_network.content_distribution 	repo-45_card 	0
scalar barabasi_100nodes_network.content_distribution 	repo-45_price 	0
scalar barabasi_100nodes_network.content_distribution 	repo-46_card 	0
scalar barabasi_100nodes_network.content_distribution 	repo-46_price 	0
scalar barabasi_100nodes_network.content_distribution 	repo-47_card 	0
scalar barabasi_100nodes_network.content_distribution 	repo-47_price 	0
scalar barabasi_100nodes_network.content_distribution 	repo-48_card 	0
scalar barabasi_100nodes_network.content_distribution 	repo-48_price 	0
scalar barabasi_100nodes_network.content_distribution 	repo-49_card 	0
scalar barabasi_100nodes_network.content_distribution 	repo-49_price 	0
scalar barabasi_100nodes_network.content_distribution 	repo-50_card 	0
scalar barabasi_100nodes_network.content_distribution 	repo-50_price 	0
scalar barabasi_100nodes_network.content_distribution 	repo-51_card 	0
scalar barabasi_100nodes_network.content_distribution 	repo-51_price 	0
scalar barabasi_100nodes_network.content_distribution 	repo-52_card 	0
scalar barabasi_100nodes_network.content_distribution 	repo-52_price 	0
scalar barabasi_100nodes_network.content_distribution 	repo-53_card 	0
scalar barabasi_100nodes_network.content_distribution 	repo-53_price 	0
scalar barabasi_100nodes_network.content_distribution 	repo-54_card 	0
scalar barabasi_100nodes_network.content_distribution 	repo-54_price 	0
scalar barabasi_100nodes_network.content_distribution 	repo-55_card 	0
scalar barabasi_100nodes_network.content_distribution 	repo-55_price 	0
scalar barabasi_100nodes_network.content_distribution 	repo-56_card 	0
scalar barabasi_100nodes_network.content_distribution 	repo-56_price 	0
scalar barabasi_100nodes_network.content_distribution 	repo-57_card 	0
scalar barabasi_100nodes_network.content_distribution 	repo-57_price 	0
scalar barabasi_100nodes_network.content_distribution 	repo-58_card 	0
scalar barabasi_100nodes_network.content_distribution 	repo-58_price 	0
scalar barabasi_100nodes_network.content_distribution 	repo-59_card 	0
scalar barabasi_100nodes_network.content_distribution 	repo-59_price 	0
scalar barabasi_100nodes_network.content_distribution 	repo-60_card 	0
scalar barabasi_100nodes_network.content_distribution 	repo-60_price 	0
scalar barabasi_100nodes_network.content_distribution 	repo-61_card 	0
scalar barabasi_100nodes_network.content_distribution 	repo-61_price 	0
scalar barabasi_100nodes_network.content_distribution 	repo-62_card 	0
scalar barabasi_100nodes_network.content_distribution 	repo-62_price 	0
scalar barabasi_100nodes_network.content_distribution 	repo-63_card 	0
scalar barabasi_100nodes_network.content_distribution 	repo-63_price 	0
scalar barabasi_100nodes_network.content_distribution 	repo-64_card 	0
scalar barabasi_100nodes_network.content_distribution 	repo-64_price 	0
scalar barabasi_100nodes_network.content_distribution 	repo-65_card 	0
scalar barabasi_100nodes_network.content_distribution 	repo-65_price 	0
scalar barabasi_100nodes_network.content_distribution 	repo-66_card 	0
scalar barabasi_100nodes_network.content_distribution 	repo-66_price 	0
scalar barabasi_100nodes_network.content_distribution 	repo-67_card 	0
scalar barabasi_100nodes_network.content_distribution 	repo-67_price 	0
scalar barabasi_100nodes_network.content_distribution 	repo-68_card 	0
scalar barabasi_100nodes_network.content_distribution 	repo-68_price 	0
scalar barabasi_100nodes_network.content_distribution 	repo-69_card 	0
scalar barabasi_100nodes_network.content_distribution 	repo-69_price 	0
scalar barabasi_100nodes_network.content_distribution 	repo-70_card 	0
scalar barabasi_100nodes_network.content_distribution 	repo-70_price 	0
scalar barabasi_100nodes_network.content_distribution 	repo-71_card 	0
scalar barabasi_100nodes_network.content_distribution 	repo-71_price 	0
scalar barabasi_100nodes_network.content_distribution 	repo-72_card 	0
scalar barabasi_100nodes_network.content_distribution 	repo-72_price 	0
scalar barabasi_100nodes_network.content_distribution 	repo-73_card 	0
scalar barabasi_100nodes_network.content_distribution 	repo-73_price 	0
scalar barabasi_100nodes_network.content_distribution 	repo-74_card 	0
scalar barabasi_100nodes_network.content_distribution 	repo-74_price 	0
scalar barabasi_100nodes_network.content_distribution 	repo-75_card 	0
scalar barabasi_100nodes_network.content_distribution 	repo-75_price 	0
scalar barabasi_100nodes_network.content_distribution 	repo-76_card 	0
scalar barabasi_100nodes_network.content_distribution 	repo-76_price 	0
scalar barabasi_100nodes_network.content_distribution 	repo-77_card 	0
scalar barabasi_100nodes_network.content_distribution 	repo-77_price 	0
scalar barabasi_100nodes_network.content_distribution 	repo-78_card 	0
scalar barabasi_100nodes_network.content_distribution 	repo-78_price 	0
scalar barabasi_100nodes_network.content_distribution 	repo-79_card 	0
scalar barabasi_100nodes_network.content_distribution 	repo-79_price 	0
scalar barabasi_100nodes_network.content_distribution 	repo-80_card 	0
scalar barabasi_100nodes_network.content_distribution 	repo-80_price 	0
scalar barabasi_100nodes_network.content_distribution 	repo-81_card 	0
scalar barabasi_100nodes_network.content_distribution 	repo-81_price 	0
scalar barabasi_100nodes_network.content_distribution 	repo-82_card 	0
scalar barabasi_100nodes_network.content_distribution 	repo-82_price 	0
scalar barabasi_100nodes_network.content_distribution 	repo-83_card 	0
scalar barabasi_100nodes_network.content_distribution 	repo-83_price 	0
scalar barabasi_100nodes_network.content_distribution 	repo-84_card 	0
scalar barabasi_100nodes_network.content_distribution 	repo-84_price 	0
scalar barabasi_100nodes_network.content_distribution 	repo-85_card 	0
scalar barabasi_100nodes_network.content_distribution 	repo-85_price 	0
scalar barabasi_100nodes_network.content_distribution 	repo-86_card 	0
scalar barabasi_100nodes_network.content_distribution 	repo-86_price 	0
scalar barabasi_100nodes_network.content_distribution 	repo-87_card 	0
scalar barabasi_100nodes_network.content_distribution 	repo-87_price 	0
scalar barabasi_100nodes_network.content_distribution 	repo-88_card 	0
scalar barabasi_100nodes_network.content_distribution 	repo-88_price 	0
scalar barabasi_100nodes_network.content_distribution 	repo-89_card 	0
scalar barabasi_100nodes_network.content_distribution 	repo-89_price 	0
scalar barabasi_100nodes_network.content_distribution 	repo-90_card 	0
scalar barabasi_100nodes_network.content_distribution 	repo-90_price 	0
scalar barabasi_100nodes_network.content_distribution 	repo-91_card 	0
scalar barabasi_100nodes_network.content_distribution 	repo-91_price 	0
scalar barabasi_100nodes_network.content_distribution 	repo-92_card 	0
scalar barabasi_100nodes_network.content_distribution 	repo-92_price 	0
scalar barabasi_100nodes_network.content_distribution 	repo-93_card 	0
scalar barabasi_100nodes_network.content_distribution 	repo-93_price 	0
scalar barabasi_100nodes_network.content_distribution 	repo-94_card 	0
scalar barabasi_100nodes_network.content_distribution 	repo-94_price 	0
scalar barabasi_100nodes_network.content_distribution 	repo-95_card 	0
scalar barabasi_100nodes_network.content_distribution 	repo-95_price 	0
scalar barabasi_100nodes_network.content_distribution 	repo-96_card 	0
scalar barabasi_100nodes_network.content_distribution 	repo-96_price 	0
scalar barabasi_100nodes_network.content_distribution 	repo-97_card 	0
scalar barabasi_100nodes_network.content_distribution 	repo-97_price 	0
scalar barabasi_100nodes_network.content_distribution 	repo-98_card 	0
scalar barabasi_100nodes_network.content_distribution 	repo-98_price 	0
scalar barabasi_100nodes_network.content_distribution 	repo-99_card 	0
scalar barabasi_100nodes_network.content_distribution 	repo-99_price 	0
scalar barabasi_100nodes_network.statistics 	stabilization_time 	355.7
scalar barabasi_100nodes_network.statistics 	p_hit 	0.11419604212957
scalar barabasi_100nodes_network.statistics 	interests 	84606.61
scalar barabasi_100nodes_network.statistics 	data 	43421.41
scalar barabasi_100nodes_network.statistics 	hdistance 	1.8909305904741
scalar barabasi_100nodes_network.statistics 	avg_time 	0
scalar barabasi_100nodes_network.statistics 	downloads 	1540779
scalar barabasi_100nodes_network.statistics 	total_cost 	0
scalar barabasi_100nodes_network.statistics 	total_replicas 	1000000
scalar barabasi_100nodes_network.statistics 	"representations_downloaded 0.372932:0:0:0:0.627069:" 	0
scalar barabasi_100nodes_network.statistics 	"slots_per_representation 100:233:500:833:1167:" 	0
scalar barabasi_100nodes_network.statistics 	inner_hit 	2787.4511127164
scalar barabasi_100nodes_network.statistics 	execution_time 	495
scalar barabasi_100nodes_network.node[0].core_layer 	interests[0] 	729600
scalar barabasi_100nodes_network.node[0].core_layer 	data[0] 	474954
scalar barabasi_100nodes_network.node[0].core_layer 	slots_sent[face$o[1]->client[0]] 	10990515
scalar barabasi_100nodes_network.node[0].core_layer 	slots_sent[face$o[2]->node[1]] 	8523716
scalar barabasi_100nodes_network.node[0].core_layer 	slots_sent[face$o[3]->node[2]] 	135048562
scalar barabasi_100nodes_network.node[0].core_layer 	slots_sent[face$o[4]->node[5]] 	32516792
scalar barabasi_100nodes_network.node[0].core_layer 	slots_sent[face$o[5]->node[10]] 	16684032
scalar barabasi_100nodes_network.node[0].core_layer 	slots_sent[face$o[6]->node[11]] 	8528651
scalar barabasi_100nodes_network.node[0].core_layer 	slots_sent[face$o[7]->node[15]] 	24391724
scalar barabasi_100nodes_network.node[0].core_layer 	slots_sent[face$o[8]->node[21]] 	24347711
scalar barabasi_100nodes_network.node[0].core_layer 	slots_sent[face$o[9]->node[22]] 	8648485
scalar barabasi_100nodes_network.node[0].core_layer 	slots_sent[face$o[10]->node[28]] 	8709599
scalar barabasi_100nodes_network.node[0].core_layer 	slots_sent[face$o[11]->node[37]] 	8710967
scalar barabasi_100nodes_network.node[0].core_layer 	slots_sent[face$o[12]->node[44]] 	8478138
scalar barabasi_100nodes_network.node[0].core_layer 	slots_sent[face$o[13]->node[58]] 	16508117
scalar barabasi_100nodes_network.node[0].core_layer 	slots_sent[face$o[14]->node[73]] 	16549595
scalar barabasi_100nodes_network.node[0].core_layer 	slots_sent[face$o[15]->node[74]] 	6123306
scalar barabasi_100nodes_network.node[0].core_layer 	slots_sent[face$o[16]->node[93]] 	8622542
scalar barabasi_100nodes_network.node[0].content_store 	p_hit[0] 	0.046474780701754
scalar barabasi_100nodes_network.node[0].content_store 	hits[0] 	33908
scalar barabasi_100nodes_network.node[0].content_store 	misses[0] 	695692
scalar barabasi_100nodes_network.node[0].content_store 	decision_yes[0] 	247532
scalar barabasi_100nodes_network.node[0].content_store 	decision_no[0] 	227422
scalar barabasi_100nodes_network.node[0].content_store 	decision_ratio[0] 	0.52117047124564
scalar barabasi_100nodes_network.node[0].proactive_component 	hdistance[0].proactive_component 	2.9585337948262
scalar barabasi_100nodes_network.node[0].proactive_component 	downloads[0].proactive_component 	763031
scalar barabasi_100nodes_network.node[0].proactive_component 	avg_time[0].proactive_component 	0
scalar barabasi_100nodes_network.node[1].core_layer 	interests[1] 	20622
scalar barabasi_100nodes_network.node[1].core_layer 	data[1] 	12169
scalar barabasi_100nodes_network.node[1].core_layer 	slots_sent[face$o[1]->client[1]] 	12178760
scalar barabasi_100nodes_network.node[1].core_layer 	slots_sent[face$o[2]->node[0]] 	0
scalar barabasi_100nodes_network.node[1].content_store 	p_hit[1] 	0.40990204635826
scalar barabasi_100nodes_network.node[1].content_store 	hits[1] 	8453
scalar barabasi_100nodes_network.node[1].content_store 	misses[1] 	12169
scalar barabasi_100nodes_network.node[1].content_store 	decision_yes[1] 	6848
scalar barabasi_100nodes_network.node[1].content_store 	decision_no[1] 	5321
scalar barabasi_100nodes_network.node[1].content_store 	decision_ratio[1] 	0.5627413920618
scalar barabasi_100nodes_network.node[1].proactive_component 	hdistance[1].proactive_component 	4.6429252425551
scalar barabasi_100nodes_network.node[1].proactive_component 	downloads[1].proactive_component 	17831
scalar barabasi_100nodes_network.node[1].proactive_component 	avg_time[1].proactive_component 	0
scalar barabasi_100nodes_network.node[2].core_layer 	interests[2] 	1409317
scalar barabasi_100nodes_network.node[2].core_layer 	data[2] 	924127
scalar barabasi_100nodes_network.node[2].core_layer 	slots_sent[face$o[1]->client[2]] 	10728899
scalar barabasi_100nodes_network.node[2].core_layer 	slots_sent[face$o[2]->node[0]] 	146782946
scalar barabasi_100nodes_network.node[2].core_layer 	slots_sent[face$o[3]->node[3]] 	16827232
scalar barabasi_100nodes_network.node[2].core_layer 	slots_sent[face$o[4]->node[4]] 	28656238
scalar barabasi_100nodes_network.node[2].core_layer 	slots_sent[face$o[5]->node[6]] 	8636678
scalar barabasi_100nodes_network.node[2].core_layer 	slots_sent[face$o[6]->node[7]] 	84213585
scalar barabasi_100nodes_network.node[2].core_layer 	slots_sent[face$o[7]->node[8]] 	59104845
scalar barabasi_100nodes_network.node[2].core_layer 	slots_sent[face$o[8]->node[13]] 	39612446
scalar barabasi_100nodes_network.node[2].core_layer 	slots_sent[face$o[9]->node[16]] 	40122929
scalar barabasi_100nodes_network.node[2].core_layer 	slots_sent[face$o[10]->node[18]] 	30184860
scalar barabasi_100nodes_network.node[2].core_layer 	slots_sent[face$o[11]->node[25]] 	16656819
scalar barabasi_100nodes_network.node[2].core_layer 	slots_sent[face$o[12]->node[26]] 	30116613
scalar barabasi_100nodes_network.node[2].core_layer 	slots_sent[face$o[13]->node[29]] 	8644447
scalar barabasi_100nodes_network.node[2].core_layer 	slots_sent[face$o[14]->node[32]] 	22259251
scalar barabasi_100nodes_network.node[2].core_layer 	slots_sent[face$o[15]->node[33]] 	8743940
scalar barabasi_100nodes_network.node[2].core_layer 	slots_sent[face$o[16]->node[34]] 	8489840
scalar barabasi_100nodes_network.node[2].core_layer 	slots_sent[face$o[17]->node[36]] 	16651687
scalar barabasi_100nodes_network.node[2].core_layer 	slots_sent[face$o[18]->node[41]] 	45555984
scalar barabasi_100nodes_network.node[2].core_layer 	slots_sent[face$o[19]->node[45]] 	6187224
scalar barabasi_100nodes_network.node[2].core_layer 	slots_sent[face$o[20]->node[59]] 	8681122
scalar barabasi_100nodes_network.node[2].core_layer 	slots_sent[face$o[21]->node[62]] 	24550793
scalar barabasi_100nodes_network.node[2].core_layer 	slots_sent[face$o[22]->node[79]] 	8530149
scalar barabasi_100nodes_network.node[2].content_store 	p_hit[2] 	0.039617772296793
scalar barabasi_100nodes_network.node[2].content_store 	hits[2] 	55834
scalar barabasi_100nodes_network.node[2].content_store 	misses[2] 	1353483
scalar barabasi_100nodes_network.node[2].content_store 	decision_yes[2] 	487809
scalar barabasi_100nodes_network.node[2].content_store 	decision_no[2] 	436318
scalar barabasi_100nodes_network.node[2].content_store 	decision_ratio[2] 	0.52785926609654
scalar barabasi_100nodes_network.node[2].proactive_component 	hdistance[2].proactive_component 	3.1481344527917
scalar barabasi_100nodes_network.node[2].proactive_component 	downloads[2].proactive_component 	1460349
scalar barabasi_100nodes_network.node[2].proactive_component 	avg_time[2].proactive_component 	0
scalar barabasi_100nodes_network.node[3].core_layer 	interests[3] 	38370
scalar barabasi_100nodes_network.node[3].core_layer 	data[3] 	24270
scalar barabasi_100nodes_network.node[3].core_layer 	slots_sent[face$o[1]->client[3]] 	12002403
scalar barabasi_100nodes_network.node[3].core_layer 	slots_sent[face$o[2]->node[2]] 	0
scalar barabasi_100nodes_network.node[3].core_layer 	slots_sent[face$o[3]->node[52]] 	8706271
scalar barabasi_100nodes_network.node[3].content_store 	p_hit[3] 	0.23140474328903
scalar barabasi_100nodes_network.node[3].content_store 	hits[3] 	8879
scalar barabasi_100nodes_network.node[3].content_store 	misses[3] 	29491
scalar barabasi_100nodes_network.node[3].content_store 	decision_yes[3] 	13496
scalar barabasi_100nodes_network.node[3].content_store 	decision_no[3] 	10774
scalar barabasi_100nodes_network.node[3].content_store 	decision_ratio[3] 	0.5560774618871
scalar barabasi_100nodes_network.node[3].proactive_component 	hdistance[3].proactive_component 	4.1777627956627
scalar barabasi_100nodes_network.node[3].proactive_component 	downloads[3].proactive_component 	35598
scalar barabasi_100nodes_network.node[3].proactive_component 	avg_time[3].proactive_component 	0
scalar barabasi_100nodes_network.node[4].core_layer 	interests[4] 	91492
scalar barabasi_100nodes_network.node[4].core_layer 	repo_load[4] 	25001
scalar barabasi_100nodes_network.node[4].core_layer 	data[4] 	42070
scalar barabasi_100nodes_network.node[4].core_layer 	slots_sent[face$o[1]->client[4]] 	10364355
scalar barabasi_100nodes_network.node[4].core_layer 	slots_sent[face$o[2]->node[2]] 	0
scalar barabasi_100nodes_network.node[4].core_layer 	slots_sent[face$o[3]->node[27]] 	16684522
scalar barabasi_100nodes_network.node[4].core_layer 	slots_sent[face$o[4]->node[30]] 	9948815
scalar barabasi_100nodes_network.node[4].core_layer 	slots_sent[face$o[5]->node[85]] 	6142450
scalar barabasi_100nodes_network.node[4].content_store 	p_hit[4] 	0.10357189699646
scalar barabasi_100nodes_network.node[4].content_store 	hits[4] 	9476
scalar barabasi_100nodes_network.node[4].content_store 	misses[4] 	82016
scalar barabasi_100nodes_network.node[4].content_store 	decision_yes[4] 	22914
scalar barabasi_100nodes_network.node[4].content_store 	decision_no[4] 	44157
scalar barabasi_100nodes_network.node[4].content_store 	decision_ratio[4] 	0.3416379657378
scalar barabasi_100nodes_network.node[4].proactive_component 	hdistance[4].proactive_component 	3.1210911440961
scalar barabasi_100nodes_network.node[4].proactive_component 	downloads[4].proactive_component 	95936
scalar barabasi_100nodes_network.node[4].proactive_component 	avg_time[4].proactive_component 	0
scalar barabasi_100nodes_network.node[5].core_layer 	interests[5] 	72190
scalar barabasi_100nodes_network.node[5].core_layer 	data[5] 	46937
scalar barabasi_100nodes_network.node[5].core_layer 	slots_sent[face$o[1]->client[5]] 	12227666
scalar barabasi_100nodes_network.node[5].core_layer 	slots_sent[face$o[2]->node[0]] 	0
scalar barabasi_100nodes_network.node[5].core_layer 	slots_sent[face$o[3]->node[9]] 	8644823
scalar barabasi_100nodes_network.node[5].core_layer 	slots_sent[face$o[4]->node[35]] 	16769767
scalar barabasi_100nodes_network.node[5].content_store 	p_hit[5] 	0.13841252251004
scalar barabasi_100nodes_network.node[5].content_store 	hits[5] 	9992
scalar barabasi_100nodes_network.node[5].content_store 	misses[5] 	62198
scalar barabasi_100nodes_network.node[5].content_store 	decision_yes[5] 	26076
scalar barabasi_100nodes_network.node[5].content_store 	decision_no[5] 	20861
scalar barabasi_100nodes_network.node[5].content_store 	decision_ratio[5] 	0.55555318831625
scalar barabasi_100nodes_network.node[5].proactive_component 	hdistance[5].proactive_component 	4.6503717766176
scalar barabasi_100nodes_network.node[5].proactive_component 	downloads[5].proactive_component 	69531
scalar barabasi_100nodes_network.node[5].proactive_component 	avg_time[5].proactive_component 	0
scalar barabasi_100nodes_network.node[6].core_layer 	interests[6] 	20876
scalar barabasi_100nodes_network.node[6].core_layer 	data[6] 	12381
scalar barabasi_100nodes_network.node[6].core_layer 	slots_sent[face$o[1]->client[6]] 	12193694
scalar barabasi_100nodes_network.node[6].core_layer 	slots_sent[face$o[2]->node[2]] 	0
scalar barabasi_100nodes_network.node[6].content_store 	p_hit[6] 	0.40692661429393
scalar barabasi_100nodes_network.node[6].content_store 	hits[6] 	8495
scalar barabasi_100nodes_network.node[6].content_store 	misses[6] 	12381
scalar barabasi_100nodes_network.node[6].content_store 	decision_yes[6] 	6934
scalar barabasi_100nodes_network.node[6].content_store 	decision_no[6] 	5447
scalar barabasi_100nodes_network.node[6].content_store 	decision_ratio[6] 	0.56005169210888
scalar barabasi_100nodes_network.node[6].proactive_component 	hdistance[6].proactive_component 	4.1692575279921
scalar barabasi_100nodes_network.node[6].proactive_component 	downloads[6].proactive_component 	18398
scalar barabasi_100nodes_network.node[6].proactive_component 	avg_time[6].proactive_component 	0
scalar barabasi_100nodes_network.node[7].core_layer 	interests[7] 	531438
scalar barabasi_100nodes_network.node[7].core_layer 	data[7] 	348543
scalar barabasi_100nodes_network.node[7].core_layer 	slots_sent[face$o[1]->client[7]] 	11021500
scalar barabasi_100nodes_network.node[7].core_layer 	slots_sent[face$o[2]->node[2]] 	152412443
scalar barabasi_100nodes_network.node[7].core_layer 	slots_sent[face$o[3]->node[23]] 	47169288
scalar barabasi_100nodes_network.node[7].core_layer 	slots_sent[face$o[4]->node[31]] 	32315608
scalar barabasi_100nodes_network.node[7].core_layer 	slots_sent[face$o[5]->node[49]] 	6058188
scalar barabasi_100nodes_network.node[7].core_layer 	slots_sent[face$o[6]->node[90]] 	6144243
scalar barabasi_100nodes_network.node[7].content_store 	p_hit[7] 	0.0486096214422
scalar barabasi_100nodes_network.node[7].content_store 	hits[7] 	25833
scalar barabasi_100nodes_network.node[7].content_store 	misses[7] 	505605
scalar barabasi_100nodes_network.node[7].content_store 	decision_yes[7] 	185129
scalar barabasi_100nodes_network.node[7].content_store 	decision_no[7] 	163414
scalar barabasi_100nodes_network.node[7].content_store 	decision_ratio[7] 	0.53115110617628
scalar barabasi_100nodes_network.node[7].proactive_component 	hdistance[7].proactive_component 	3.8708800624623
scalar barabasi_100nodes_network.node[7].proactive_component 	downloads[7].proactive_component 	545609
scalar barabasi_100nodes_network.node[7].proactive_component 	avg_time[7].proactive_component 	0
scalar barabasi_100nodes_network.node[8].core_layer 	interests[8] 	131419
scalar barabasi_100nodes_network.node[8].core_layer 	data[8] 	85984
scalar barabasi_100nodes_network.node[8].core_layer 	slots_sent[face$o[1]->client[8]] 	11787069
scalar barabasi_100nodes_network.node[8].core_layer 	slots_sent[face$o[2]->node[2]] 	0
scalar barabasi_100nodes_network.node[8].core_layer 	slots_sent[face$o[3]->node[12]] 	6174028
scalar barabasi_100nodes_network.node[8].core_layer 	slots_sent[face$o[4]->node[14]] 	8531559
scalar barabasi_100nodes_network.node[8].core_layer 	slots_sent[face$o[5]->node[17]] 	8550531
scalar barabasi_100nodes_network.node[8].core_layer 	slots_sent[face$o[6]->node[39]] 	14571741
scalar barabasi_100nodes_network.node[8].core_layer 	slots_sent[face$o[7]->node[61]] 	8637988
scalar barabasi_100nodes_network.node[8].core_layer 	slots_sent[face$o[8]->node[66]] 	8771191
scalar barabasi_100nodes_network.node[8].content_store 	p_hit[8] 	0.095442820292347
scalar barabasi_100nodes_network.node[8].content_store 	hits[8] 	12543
scalar barabasi_100nodes_network.node[8].content_store 	misses[8] 	118876
scalar barabasi_100nodes_network.node[8].content_store 	decision_yes[8] 	47335
scalar barabasi_100nodes_network.node[8].content_store 	decision_no[8] 	38649
scalar barabasi_100nodes_network.node[8].content_store 	decision_ratio[8] 	0.55050939709713
scalar barabasi_100nodes_network.node[8].proactive_component 	hdistance[8].proactive_component 	4.1710105520109
scalar barabasi_100nodes_network.node[8].proactive_component 	downloads[8].proactive_component 	129454
scalar barabasi_100nodes_network.node[8].proactive_component 	avg_time[8].proactive_component 	0
scalar barabasi_100nodes_network.node[9].core_layer 	interests[9] 	20477
scalar barabasi_100nodes_network.node[9].core_layer 	data[9] 	12089
scalar barabasi_100nodes_network.node[9].core_layer 	slots_sent[face$o[1]->client[9]] 	12458579
scalar barabasi_100nodes_network.node[9].core_layer 	slots_sent[face$o[2]->node[5]] 	0
scalar barabasi_100nodes_network.node[9].content_store 	p_hit[9] 	0.40963031694096
scalar barabasi_100nodes_network.node[9].content_store 	hits[9] 	8388
scalar barabasi_100nodes_network.node[9].content_store 	misses[9] 	12089
scalar barabasi_100nodes_network.node[9].content_store 	decision_yes[9] 	6969
scalar barabasi_100nodes_network.node[9].content_store 	decision_no[9] 	5120
scalar barabasi_100nodes_network.node[9].content_store 	decision_ratio[9] 	0.57647448093308
scalar barabasi_100nodes_network.node[9].proactive_component 	hdistance[9].proactive_component 	5.6635372324917
scalar barabasi_100nodes_network.node[9].proactive_component 	downloads[9].proactive_component 	17149
scalar barabasi_100nodes_network.node[9].proactive_component 	avg_time[9].proactive_component 	0
scalar barabasi_100nodes_network.node[10].core_layer 	interests[10] 	38076
scalar barabasi_100nodes_network.node[10].core_layer 	data[10] 	23905
scalar barabasi_100nodes_network.node[10].core_layer 	slots_sent[face$o[1]->client[10]] 	12314196
scalar barabasi_100nodes_network.node[10].core_layer 	slots_sent[face$o[2]->node[0]] 	0
scalar barabasi_100nodes_network.node[10].core_layer 	slots_sent[face$o[3]->node[71]] 	8643390
scalar barabasi_100nodes_network.node[10].content_store 	p_hit[10] 	0.23839163777708
scalar barabasi_100nodes_network.node[10].content_store 	hits[10] 	9077
scalar barabasi_100nodes_network.node[10].content_store 	misses[10] 	28999
scalar barabasi_100nodes_network.node[10].content_store 	decision_yes[10] 	13396
scalar barabasi_100nodes_network.node[10].content_store 	decision_no[10] 	10509
scalar barabasi_100nodes_network.node[10].content_store 	decision_ratio[10] 	0.56038485672453
scalar barabasi_100nodes_network.node[10].proactive_component 	hdistance[10].proactive_component 	4.6453266132458
scalar barabasi_100nodes_network.node[10].proactive_component 	downloads[10].proactive_component 	35317
scalar barabasi_100nodes_network.node[10].proactive_component 	avg_time[10].proactive_component 	0
scalar barabasi_100nodes_network.node[11].core_layer 	interests[11] 	20539
scalar barabasi_100nodes_network.node[11].core_layer 	data[11] 	12165
scalar barabasi_100nodes_network.node[11].core_layer 	slots_sent[face$o[1]->client[11]] 	12102005
scalar barabasi_100nodes_network.node[11].core_layer 	slots_sent[face$o[2]->node[0]] 	0
scalar barabasi_100nodes_network.node[11].content_store 	p_hit[11] 	0.40771215735917
scalar barabasi_100nodes_network.node[11].content_store 	hits[11] 	8374
scalar barabasi_100nodes_network.node[11].content_store 	misses[11] 	12165
scalar barabasi_100nodes_network.node[11].content_store 	decision_yes[11] 	6853
scalar barabasi_100nodes_network.node[11].content_store 	decision_no[11] 	5312
scalar barabasi_100nodes_network.node[11].content_store 	decision_ratio[11] 	0.56333744348541
scalar barabasi_100nodes_network.node[11].proactive_component 	hdistance[11].proactive_component 	4.6515397082658
scalar barabasi_100nodes_network.node[11].proactive_component 	downloads[11].proactive_component 	17893
scalar barabasi_100nodes_network.node[11].proactive_component 	avg_time[11].proactive_component 	0
scalar barabasi_100nodes_network.node[12].core_layer 	interests[12] 	23212
scalar barabasi_100nodes_network.node[12].core_layer 	repo_load[12] 	8402
scalar barabasi_100nodes_network.node[12].core_layer 	data[12] 	8561
scalar barabasi_100nodes_network.node[12].core_layer 	slots_sent[face$o[1]->client[12]] 	9712352
scalar barabasi_100nodes_network.node[12].core_layer 	slots_sent[face$o[2]->node[8]] 	0
scalar barabasi_100nodes_network.node[12].content_store 	p_hit[12] 	0.26921419955196
scalar barabasi_100nodes_network.node[12].content_store 	hits[12] 	6249
scalar barabasi_100nodes_network.node[12].content_store 	misses[12] 	16963
scalar barabasi_100nodes_network.node[12].content_store 	decision_yes[12] 	4984
scalar barabasi_100nodes_network.node[12].content_store 	decision_no[12] 	11979
scalar barabasi_100nodes_network.node[12].content_store 	decision_ratio[12] 	0.29381595236692
scalar barabasi_100nodes_network.node[12].proactive_component 	hdistance[12].proactive_component 	3.1640702939145
scalar barabasi_100nodes_network.node[12].proactive_component 	downloads[12].proactive_component 	26062
scalar barabasi_100nodes_network.node[12].proactive_component 	avg_time[12].proactive_component 	0
scalar barabasi_100nodes_network.node[13].core_layer 	interests[13] 	87810
scalar barabasi_100nodes_network.node[13].core_layer 	data[13] 	57480
scalar barabasi_100nodes_network.node[13].core_layer 	slots_sent[face$o[1]->client[13]] 	12095593
scalar barabasi_100nodes_network.node[13].core_layer 	slots_sent[face$o[2]->node[2]] 	0
scalar barabasi_100nodes_network.node[13].core_layer 	slots_sent[face$o[3]->node[67]] 	8615050
scalar barabasi_100nodes_network.node[13].core_layer 	slots_sent[face$o[4]->node[78]] 	24255999
scalar barabasi_100nodes_network.node[13].content_store 	p_hit[13] 	0.11679763124929
scalar barabasi_100nodes_network.node[13].content_store 	hits[13] 	10256
scalar barabasi_100nodes_network.node[13].content_store 	misses[13] 	77554
scalar barabasi_100nodes_network.node[13].content_store 	decision_yes[13] 	31738
scalar barabasi_100nodes_network.node[13].content_store 	decision_no[13] 	25742
scalar barabasi_100nodes_network.node[13].content_store 	decision_ratio[13] 	0.55215727209464
scalar barabasi_100nodes_network.node[13].proactive_component 	hdistance[13].proactive_component 	4.1760448580842
scalar barabasi_100nodes_network.node[13].proactive_component 	downloads[13].proactive_component 	86495
scalar barabasi_100nodes_network.node[13].proactive_component 	avg_time[13].proactive_component 	0
scalar barabasi_100nodes_network.node[14].core_layer 	interests[14] 	20364
scalar barabasi_100nodes_network.node[14].core_layer 	data[14] 	11938
scalar barabasi_100nodes_network.node[14].core_layer 	slots_sent[face$o[1]->client[14]] 	12458514
scalar barabasi_100nodes_network.node[14].core_layer 	slots_sent[face$o[2]->node[8]] 	0
scalar barabasi_100nodes_network.node[14].content_store 	p_hit[14] 	0.41376939697505
scalar barabasi_100nodes_network.node[14].content_store 	hits[14] 	8426
scalar barabasi_100nodes_network.node[14].content_store 	misses[14] 	11938
scalar barabasi_100nodes_network.node[14].content_store 	decision_yes[14] 	6877
scalar barabasi_100nodes_network.node[14].content_store 	decision_no[14] 	5061
scalar barabasi_100nodes_network.node[14].content_store 	decision_ratio[14] 	0.57605964148099
scalar barabasi_100nodes_network.node[14].proactive_component 	hdistance[14].proactive_component 	5.1724540414356
scalar barabasi_100nodes_network.node[14].proactive_component 	downloads[14].proactive_component 	17135
scalar barabasi_100nodes_network.node[14].proactive_component 	avg_time[14].proactive_component 	0
scalar barabasi_100nodes_network.node[15].core_layer 	interests[15] 	54807
scalar barabasi_100nodes_network.node[15].core_layer 	data[15] 	35084
scalar barabasi_100nodes_network.node[15].core_layer 	slots_sent[face$o[1]->client[15]] 	12239305
scalar barabasi_100nodes_network.node[15].core_layer 	slots_sent[face$o[2]->node[0]] 	0
scalar barabasi_100nodes_network.node[15].core_layer 	slots_sent[face$o[3]->node[40]] 	8540529
scalar barabasi_100nodes_network.node[15].core_layer 	slots_sent[face$o[4]->node[56]] 	8526127
scalar barabasi_100nodes_network.node[15].content_store 	p_hit[15] 	0.17751382122722
scalar barabasi_100nodes_network.node[15].content_store 	hits[15] 	9729
scalar barabasi_100nodes_network.node[15].content_store 	misses[15] 	45078
scalar barabasi_100nodes_network.node[15].content_store 	decision_yes[15] 	19572
scalar barabasi_100nodes_network.node[15].content_store 	decision_no[15] 	15512
scalar barabasi_100nodes_network.node[15].content_store 	decision_ratio[15] 	0.55786113328013
scalar barabasi_100nodes_network.node[15].proactive_component 	hdistance[15].proactive_component 	4.6539513706886
scalar barabasi_100nodes_network.node[15].proactive_component 	downloads[15].proactive_component 	52273
scalar barabasi_100nodes_network.node[15].proactive_component 	avg_time[15].proactive_component 	0
scalar barabasi_100nodes_network.node[16].core_layer 	interests[16] 	522579
scalar barabasi_100nodes_network.node[16].core_layer 	repo_load[16] 	435077
scalar barabasi_100nodes_network.node[16].core_layer 	data[16] 	57794
scalar barabasi_100nodes_network.node[16].core_layer 	slots_sent[face$o[1]->client[16]] 	9323492
scalar barabasi_100nodes_network.node[16].core_layer 	slots_sent[face$o[2]->node[2]] 	167706455
scalar barabasi_100nodes_network.node[16].core_layer 	slots_sent[face$o[3]->node[19]] 	39713499
scalar barabasi_100nodes_network.node[16].core_layer 	slots_sent[face$o[4]->node[20]] 	8648251
scalar barabasi_100nodes_network.node[16].content_store 	p_hit[16] 	0.015387147206451
scalar barabasi_100nodes_network.node[16].content_store 	hits[16] 	8041
scalar barabasi_100nodes_network.node[16].content_store 	misses[16] 	514538
scalar barabasi_100nodes_network.node[16].content_store 	decision_yes[16] 	32187
scalar barabasi_100nodes_network.node[16].content_store 	decision_no[16] 	460684
scalar barabasi_100nodes_network.node[16].content_store 	decision_ratio[16] 	0.06530512040676
scalar barabasi_100nodes_network.node[16].proactive_component 	hdistance[16].proactive_component 	1.5381099306903
scalar barabasi_100nodes_network.node[16].proactive_component 	downloads[16].proactive_component 	576254
scalar barabasi_100nodes_network.node[16].proactive_component 	avg_time[16].proactive_component 	0
scalar barabasi_100nodes_network.node[17].core_layer 	interests[17] 	20429
scalar barabasi_100nodes_network.node[17].core_layer 	data[17] 	11957
scalar barabasi_100nodes_network.node[17].core_layer 	slots_sent[face$o[1]->client[17]] 	12527667
scalar barabasi_100nodes_network.node[17].core_layer 	slots_sent[face$o[2]->node[8]] 	0
scalar barabasi_100nodes_network.node[17].content_store 	p_hit[17] 	0.41470458661706
scalar barabasi_100nodes_network.node[17].content_store 	hits[17] 	8472
scalar barabasi_100nodes_network.node[17].content_store 	misses[17] 	11957
scalar barabasi_100nodes_network.node[17].content_store 	decision_yes[17] 	6893
scalar barabasi_100nodes_network.node[17].content_store 	decision_no[17] 	5064
scalar barabasi_100nodes_network.node[17].content_store 	decision_ratio[17] 	0.57648239524964
scalar barabasi_100nodes_network.node[17].proactive_component 	hdistance[17].proactive_component 	5.1906080603347
scalar barabasi_100nodes_network.node[17].proactive_component 	downloads[17].proactive_component 	16972
scalar barabasi_100nodes_network.node[17].proactive_component 	avg_time[17].proactive_component 	0
scalar barabasi_100nodes_network.node[18].core_layer 	interests[18] 	67983
scalar barabasi_100nodes_network.node[18].core_layer 	data[18] 	43848
scalar barabasi_100nodes_network.node[18].core_layer 	slots_sent[face$o[1]->client[18]] 	12072321
scalar barabasi_100nodes_network.node[18].core_layer 	slots_sent[face$o[2]->node[2]] 	0
scalar barabasi_100nodes_network.node[18].core_layer 	slots_sent[face$o[3]->node[53]] 	8490715
scalar barabasi_100nodes_network.node[18].core_layer 	slots_sent[face$o[4]->node[68]] 	6081729
scalar barabasi_100nodes_network.node[18].core_layer 	slots_sent[face$o[5]->node[72]] 	8753084
scalar barabasi_100nodes_network.node[18].content_store 	p_hit[18] 	0.14840474824589
scalar barabasi_100nodes_network.node[18].content_store 	hits[18] 	10089
scalar barabasi_100nodes_network.node[18].content_store 	misses[18] 	57894
scalar barabasi_100nodes_network.node[18].content_store 	decision_yes[18] 	24180
scalar barabasi_100nodes_network.node[18].content_store 	decision_no[18] 	19668
scalar barabasi_100nodes_network.node[18].content_store 	decision_ratio[18] 	0.55145046524357
scalar barabasi_100nodes_network.node[18].proactive_component 	hdistance[18].proactive_component 	4.0714274779947
scalar barabasi_100nodes_network.node[18].proactive_component 	downloads[18].proactive_component 	65325
scalar barabasi_100nodes_network.node[18].proactive_component 	avg_time[18].proactive_component 	0
scalar barabasi_100nodes_network.node[19].core_layer 	interests[19] 	89254
scalar barabasi_100nodes_network.node[19].core_layer 	data[19] 	57861
scalar barabasi_100nodes_network.node[19].core_layer 	slots_sent[face$o[1]->client[19]] 	11666636
scalar barabasi_100nodes_network.node[19].core_layer 	slots_sent[face$o[2]->node[16]] 	0
scalar barabasi_100nodes_network.node[19].core_layer 	slots_sent[face$o[3]->node[63]] 	8622483
scalar barabasi_100nodes_network.node[19].core_layer 	slots_sent[face$o[4]->node[70]] 	8570169
scalar barabasi_100nodes_network.node[19].core_layer 	slots_sent[face$o[5]->node[80]] 	8578672
scalar barabasi_100nodes_network.node[19].core_layer 	slots_sent[face$o[6]->node[89]] 	8494482
scalar barabasi_100nodes_network.node[19].content_store 	p_hit[19] 	0.12365832343648
scalar barabasi_100nodes_network.node[19].content_store 	hits[19] 	11037
scalar barabasi_100nodes_network.node[19].content_store 	misses[19] 	78217
scalar barabasi_100nodes_network.node[19].content_store 	decision_yes[19] 	31797
scalar barabasi_100nodes_network.node[19].content_store 	decision_no[19] 	26064
scalar barabasi_100nodes_network.node[19].content_store 	decision_ratio[19] 	0.54954114170166
scalar barabasi_100nodes_network.node[19].proactive_component 	hdistance[19].proactive_component 	4.5043083332385
scalar barabasi_100nodes_network.node[19].proactive_component 	downloads[19].proactive_component 	87853
scalar barabasi_100nodes_network.node[19].proactive_component 	avg_time[19].proactive_component 	0
scalar barabasi_100nodes_network.node[20].core_layer 	interests[20] 	20846
scalar barabasi_100nodes_network.node[20].core_layer 	data[20] 	12294
scalar barabasi_100nodes_network.node[20].core_layer 	slots_sent[face$o[1]->client[20]] 	12395488
scalar barabasi_100nodes_network.node[20].core_layer 	slots_sent[face$o[2]->node[16]] 	0
scalar barabasi_100nodes_network.node[20].content_store 	p_hit[20] 	0.41024657008539
scalar barabasi_100nodes_network.node[20].content_store 	hits[20] 	8552
scalar barabasi_100nodes_network.node[20].content_store 	misses[20] 	12294
scalar barabasi_100nodes_network.node[20].content_store 	decision_yes[20] 	6953
scalar barabasi_100nodes_network.node[20].content_store 	decision_no[20] 	5341
scalar barabasi_100nodes_network.node[20].content_store 	decision_ratio[20] 	0.56556043598503
scalar barabasi_100nodes_network.node[20].proactive_component 	hdistance[20].proactive_component 	4.4260658696142
scalar barabasi_100nodes_network.node[20].proactive_component 	downloads[20].proactive_component 	17732
scalar barabasi_100nodes_network.node[20].proactive_component 	avg_time[20].proactive_component 	0
scalar barabasi_100nodes_network.node[21].core_layer 	interests[21] 	54599
scalar barabasi_100nodes_network.node[21].core_layer 	data[21] 	35060
scalar barabasi_100nodes_network.node[21].core_layer 	slots_sent[face$o[1]->client[21]] 	11972928
scalar barabasi_100nodes_network.node[21].core_layer 	slots_sent[face$o[2]->node[0]] 	0
scalar barabasi_100nodes_network.node[21].core_layer 	slots_sent[face$o[3]->node[24]] 	8446238
scalar barabasi_100nodes_network.node[21].core_layer 	slots_sent[face$o[4]->node[57]] 	8610549
scalar barabasi_100nodes_network.node[21].content_store 	p_hit[21] 	0.17513141266324
scalar barabasi_100nodes_network.node[21].content_store 	hits[21] 	9562
scalar barabasi_100nodes_network.node[21].content_store 	misses[21] 	45037
scalar barabasi_100nodes_network.node[21].content_store 	decision_yes[21] 	19533
scalar barabasi_100nodes_network.node[21].content_store 	decision_no[21] 	15527
scalar barabasi_100nodes_network.node[21].content_store 	decision_ratio[21] 	0.55713063320023
scalar barabasi_100nodes_network.node[21].proactive_component 	hdistance[21].proactive_component 	4.6549989398817
scalar barabasi_100nodes_network.node[21].proactive_component 	downloads[21].proactive_component 	51881
scalar barabasi_100nodes_network.node[21].proactive_component 	avg_time[21].proactive_component 	0
scalar barabasi_100nodes_network.node[22].core_layer 	interests[22] 	20760
scalar barabasi_100nodes_network.node[22].core_layer 	data[22] 	12275
scalar barabasi_100nodes_network.node[22].core_layer 	slots_sent[face$o[1]->client[22]] 	12342040
scalar barabasi_100nodes_network.node[22].core_layer 	slots_sent[face$o[2]->node[0]] 	0
scalar barabasi_100nodes_network.node[22].content_store 	p_hit[22] 	0.40871868978805
scalar barabasi_100nodes_network.node[22].content_store 	hits[22] 	8485
scalar barabasi_100nodes_network.node[22].content_store 	misses[22] 	12275
scalar barabasi_100nodes_network.node[22].content_store 	decision_yes[22] 	6955
scalar barabasi_100nodes_network.node[22].content_store 	decision_no[22] 	5320
scalar barabasi_100nodes_network.node[22].content_store 	decision_ratio[22] 	0.56659877800407
scalar barabasi_100nodes_network.node[22].proactive_component 	hdistance[22].proactive_component 	4.6508865841418
scalar barabasi_100nodes_network.node[22].proactive_component 	downloads[22].proactive_component 	17934
scalar barabasi_100nodes_network.node[22].proactive_component 	avg_time[22].proactive_component 	0
scalar barabasi_100nodes_network.node[23].core_layer 	interests[23] 	453613
scalar barabasi_100nodes_network.node[23].core_layer 	data[23] 	300795
scalar barabasi_100nodes_network.node[23].core_layer 	slots_sent[face$o[1]->client[23]] 	11208123
scalar barabasi_100nodes_network.node[23].core_layer 	slots_sent[face$o[2]->node[7]] 	148174525
scalar barabasi_100nodes_network.node[23].core_layer 	slots_sent[face$o[3]->node[46]] 	15180721
scalar barabasi_100nodes_network.node[23].core_layer 	slots_sent[face$o[4]->node[47]] 	8540721
scalar barabasi_100nodes_network.node[23].core_layer 	slots_sent[face$o[5]->node[51]] 	8682460
scalar barabasi_100nodes_network.node[23].core_layer 	slots_sent[face$o[6]->node[83]] 	8739842
scalar barabasi_100nodes_network.node[23].core_layer 	slots_sent[face$o[7]->node[86]] 	8377147
scalar barabasi_100nodes_network.node[23].content_store 	p_hit[23] 	0.034425821129465
scalar barabasi_100nodes_network.node[23].content_store 	hits[23] 	15616
scalar barabasi_100nodes_network.node[23].content_store 	misses[23] 	437997
scalar barabasi_100nodes_network.node[23].content_store 	decision_yes[23] 	157347
scalar barabasi_100nodes_network.node[23].content_store 	decision_no[23] 	143448
scalar barabasi_100nodes_network.node[23].content_store 	decision_ratio[23] 	0.52310377499626
scalar barabasi_100nodes_network.node[23].proactive_component 	hdistance[23].proactive_component 	3.3412853721429
scalar barabasi_100nodes_network.node[23].proactive_component 	downloads[23].proactive_component 	479332
scalar barabasi_100nodes_network.node[23].proactive_component 	avg_time[23].proactive_component 	0
scalar barabasi_100nodes_network.node[24].core_layer 	interests[24] 	20320
scalar barabasi_100nodes_network.node[24].core_layer 	data[24] 	11757
scalar barabasi_100nodes_network.node[24].core_layer 	slots_sent[face$o[1]->client[24]] 	12670778
scalar barabasi_100nodes_network.node[24].core_layer 	slots_sent[face$o[2]->node[21]] 	0
scalar barabasi_100nodes_network.node[24].content_store 	p_hit[24] 	0.42140748031496
scalar barabasi_100nodes_network.node[24].content_store 	hits[24] 	8563
scalar barabasi_100nodes_network.node[24].content_store 	misses[24] 	11757
scalar barabasi_100nodes_network.node[24].content_store 	decision_yes[24] 	6814
scalar barabasi_100nodes_network.node[24].content_store 	decision_no[24] 	4943
scalar barabasi_100nodes_network.node[24].content_store 	decision_ratio[24] 	0.57956961809986
scalar barabasi_100nodes_network.node[24].proactive_component 	hdistance[24].proactive_component 	5.6571715027129
scalar barabasi_100nodes_network.node[24].proactive_component 	downloads[24].proactive_component 	16956
scalar barabasi_100nodes_network.node[24].proactive_component 	avg_time[24].proactive_component 	0
scalar barabasi_100nodes_network.node[25].core_layer 	interests[25] 	38018
scalar barabasi_100nodes_network.node[25].core_layer 	data[25] 	24049
scalar barabasi_100nodes_network.node[25].core_layer 	slots_sent[face$o[1]->client[25]] 	12000369
scalar barabasi_100nodes_network.node[25].core_layer 	slots_sent[face$o[2]->node[2]] 	0
scalar barabasi_100nodes_network.node[25].core_layer 	slots_sent[face$o[3]->node[38]] 	8480709
scalar barabasi_100nodes_network.node[25].content_store 	p_hit[25] 	0.23233731390394
scalar barabasi_100nodes_network.node[25].content_store 	hits[25] 	8833
scalar barabasi_100nodes_network.node[25].content_store 	misses[25] 	29185
scalar barabasi_100nodes_network.node[25].content_store 	decision_yes[25] 	13357
scalar barabasi_100nodes_network.node[25].content_store 	decision_no[25] 	10692
scalar barabasi_100nodes_network.node[25].content_store 	decision_ratio[25] 	0.55540770926026
scalar barabasi_100nodes_network.node[25].proactive_component 	hdistance[25].proactive_component 	4.1612468407751
scalar barabasi_100nodes_network.node[25].proactive_component 	downloads[25].proactive_component 	35610
scalar barabasi_100nodes_network.node[25].proactive_component 	avg_time[25].proactive_component 	0
scalar barabasi_100nodes_network.node[26].core_layer 	interests[26] 	67320
scalar barabasi_100nodes_network.node[26].core_layer 	data[26] 	43603
scalar barabasi_100nodes_network.node[26].core_layer 	slots_sent[face$o[1]->client[26]] 	12217129
scalar barabasi_100nodes_network.node[26].core_layer 	slots_sent[face$o[2]->node[2]] 	0
scalar barabasi_100nodes_network.node[26].core_layer 	slots_sent[face$o[3]->node[77]] 	16551741
scalar barabasi_100nodes_network.node[26].core_layer 	slots_sent[face$o[4]->node[91]] 	6310994
scalar barabasi_100nodes_network.node[26].content_store 	p_hit[26] 	0.14670231729055
scalar barabasi_100nodes_network.node[26].content_store 	hits[26] 	9876
scalar barabasi_100nodes_network.node[26].content_store 	misses[26] 	57444
scalar barabasi_100nodes_network.node[26].content_store 	decision_yes[26] 	24139
scalar barabasi_100nodes_network.node[26].content_store 	decision_no[26] 	19464
scalar barabasi_100nodes_network.node[26].content_store 	decision_ratio[26] 	0.55360869664931
scalar barabasi_100nodes_network.node[26].proactive_component 	hdistance[26].proactive_component 	4.1941316904121
scalar barabasi_100nodes_network.node[26].proactive_component 	downloads[26].proactive_component 	64925
scalar barabasi_100nodes_network.node[26].proactive_component 	avg_time[26].proactive_component 	0
scalar barabasi_100nodes_network.node[27].core_layer 	interests[27] 	38293
scalar barabasi_100nodes_network.node[27].core_layer 	data[27] 	24230
scalar barabasi_100nodes_network.node[27].core_layer 	slots_sent[face$o[1]->client[27]] 	11957085
scalar barabasi_100nodes_network.node[27].core_layer 	slots_sent[face$o[2]->node[4]] 	0
scalar barabasi_100nodes_network.node[27].core_layer 	slots_sent[face$o[3]->node[99]] 	8460670
scalar barabasi_100nodes_network.node[27].content_store 	p_hit[27] 	0.23317577625153
scalar barabasi_100nodes_network.node[27].content_store 	hits[27] 	8929
scalar barabasi_100nodes_network.node[27].content_store 	misses[27] 	29364
scalar barabasi_100nodes_network.node[27].content_store 	decision_yes[27] 	13366
scalar barabasi_100nodes_network.node[27].content_store 	decision_no[27] 	10864
scalar barabasi_100nodes_network.node[27].content_store 	decision_ratio[27] 	0.55163021048287
scalar barabasi_100nodes_network.node[27].proactive_component 	hdistance[27].proactive_component 	4.2464514714748
scalar barabasi_100nodes_network.node[27].proactive_component 	downloads[27].proactive_component 	36494
scalar barabasi_100nodes_network.node[27].proactive_component 	avg_time[27].proactive_component 	0
scalar barabasi_100nodes_network.node[28].core_layer 	interests[28] 	20880
scalar barabasi_100nodes_network.node[28].core_layer 	data[28] 	12438
scalar barabasi_100nodes_network.node[28].core_layer 	slots_sent[face$o[1]->client[28]] 	12211766
scalar barabasi_100nodes_network.node[28].core_layer 	slots_sent[face$o[2]->node[0]] 	0
scalar barabasi_100nodes_network.node[28].content_store 	p_hit[28] 	0.40431034482759
scalar barabasi_100nodes_network.node[28].content_store 	hits[28] 	8442
scalar barabasi_100nodes_network.node[28].content_store 	misses[28] 	12438
scalar barabasi_100nodes_network.node[28].content_store 	decision_yes[28] 	6997
scalar barabasi_100nodes_network.node[28].content_store 	decision_no[28] 	5441
scalar barabasi_100nodes_network.node[28].content_store 	decision_ratio[28] 	0.56255024923621
scalar barabasi_100nodes_network.node[28].proactive_component 	hdistance[28].proactive_component 	4.6514910209237
scalar barabasi_100nodes_network.node[28].proactive_component 	downloads[28].proactive_component 	18209
scalar barabasi_100nodes_network.node[28].proactive_component 	avg_time[28].proactive_component 	0
scalar barabasi_100nodes_network.node[29].core_layer 	interests[29] 	20621
scalar barabasi_100nodes_network.node[29].core_layer 	data[29] 	12384
scalar barabasi_100nodes_network.node[29].core_layer 	slots_sent[face$o[1]->client[29]] 	11905045
scalar barabasi_100nodes_network.node[29].core_layer 	slots_sent[face$o[2]->node[2]] 	0
scalar barabasi_100nodes_network.node[29].content_store 	p_hit[29] 	0.39944716551089
scalar barabasi_100nodes_network.node[29].content_store 	hits[29] 	8237
scalar barabasi_100nodes_network.node[29].content_store 	misses[29] 	12384
scalar barabasi_100nodes_network.node[29].content_store 	decision_yes[29] 	6941
scalar barabasi_100nodes_network.node[29].content_store 	decision_no[29] 	5443
scalar barabasi_100nodes_network.node[29].content_store 	decision_ratio[29] 	0.56048126614987
scalar barabasi_100nodes_network.node[29].proactive_component 	hdistance[29].proactive_component 	4.1473925376391
scalar barabasi_100nodes_network.node[29].proactive_component 	downloads[29].proactive_component 	18332
scalar barabasi_100nodes_network.node[29].proactive_component 	avg_time[29].proactive_component 	0
scalar barabasi_100nodes_network.node[30].core_layer 	interests[30] 	36335
scalar barabasi_100nodes_network.node[30].core_layer 	repo_load[30] 	11561
scalar barabasi_100nodes_network.node[30].core_layer 	data[30] 	14715
scalar barabasi_100nodes_network.node[30].core_layer 	slots_sent[face$o[1]->client[30]] 	10000446
scalar barabasi_100nodes_network.node[30].core_layer 	slots_sent[face$o[2]->node[4]] 	0
scalar barabasi_100nodes_network.node[30].core_layer 	slots_sent[face$o[3]->node[88]] 	6235657
scalar barabasi_100nodes_network.node[30].content_store 	p_hit[30] 	0.20335764414476
scalar barabasi_100nodes_network.node[30].content_store 	hits[30] 	7389
scalar barabasi_100nodes_network.node[30].content_store 	misses[30] 	28946
scalar barabasi_100nodes_network.node[30].content_store 	decision_yes[30] 	7945
scalar barabasi_100nodes_network.node[30].content_store 	decision_no[30] 	18331
scalar barabasi_100nodes_network.node[30].content_store 	decision_ratio[30] 	0.30236717917491
scalar barabasi_100nodes_network.node[30].proactive_component 	hdistance[30].proactive_component 	2.5028146361078
scalar barabasi_100nodes_network.node[30].proactive_component 	downloads[30].proactive_component 	39792
scalar barabasi_100nodes_network.node[30].proactive_component 	avg_time[30].proactive_component 	0
scalar barabasi_100nodes_network.node[31].core_layer 	interests[31] 	70736
scalar barabasi_100nodes_network.node[31].core_layer 	data[31] 	46547
scalar barabasi_100nodes_network.node[31].core_layer 	slots_sent[face$o[1]->client[31]] 	12008073
scalar barabasi_100nodes_network.node[31].core_layer 	slots_sent[face$o[2]->node[7]] 	0
scalar barabasi_100nodes_network.node[31].core_layer 	slots_sent[face$o[3]->node[65]] 	24469057
scalar barabasi_100nodes_network.node[31].content_store 	p_hit[31] 	0.12806774485411
scalar barabasi_100nodes_network.node[31].content_store 	hits[31] 	9059
scalar barabasi_100nodes_network.node[31].content_store 	misses[31] 	61677
scalar barabasi_100nodes_network.node[31].content_store 	decision_yes[31] 	25924
scalar barabasi_100nodes_network.node[31].content_store 	decision_no[31] 	20623
scalar barabasi_100nodes_network.node[31].content_store 	decision_ratio[31] 	0.55694244527037
scalar barabasi_100nodes_network.node[31].proactive_component 	hdistance[31].proactive_component 	4.7259788544208
scalar barabasi_100nodes_network.node[31].proactive_component 	downloads[31].proactive_component 	68856
scalar barabasi_100nodes_network.node[31].proactive_component 	avg_time[31].proactive_component 	0
scalar barabasi_100nodes_network.node[32].core_layer 	interests[32] 	50377
scalar barabasi_100nodes_network.node[32].core_layer 	data[32] 	32101
scalar barabasi_100nodes_network.node[32].core_layer 	slots_sent[face$o[1]->client[32]] 	12183090
scalar barabasi_100nodes_network.node[32].core_layer 	slots_sent[face$o[2]->node[2]] 	0
scalar barabasi_100nodes_network.node[32].core_layer 	slots_sent[face$o[3]->node[43]] 	6103874
scalar barabasi_100nodes_network.node[32].core_layer 	slots_sent[face$o[4]->node[64]] 	8672963
scalar barabasi_100nodes_network.node[32].content_store 	p_hit[32] 	0.18875677392461
scalar barabasi_100nodes_network.node[32].content_store 	hits[32] 	9509
scalar barabasi_100nodes_network.node[32].content_store 	misses[32] 	40868
scalar barabasi_100nodes_network.node[32].content_store 	decision_yes[32] 	17853
scalar barabasi_100nodes_network.node[32].content_store 	decision_no[32] 	14248
scalar barabasi_100nodes_network.node[32].content_store 	decision_ratio[32] 	0.5561508987259
scalar barabasi_100nodes_network.node[32].proactive_component 	hdistance[32].proactive_component 	4.280864389556
scalar barabasi_100nodes_network.node[32].proactive_component 	downloads[32].proactive_component 	48219
scalar barabasi_100nodes_network.node[32].proactive_component 	avg_time[32].proactive_component 	0
scalar barabasi_100nodes_network.node[33].core_layer 	interests[33] 	20934
scalar barabasi_100nodes_network.node[33].core_layer 	data[33] 	12536
scalar barabasi_100nodes_network.node[33].core_layer 	slots_sent[face$o[1]->client[33]] 	12107234
scalar barabasi_100nodes_network.node[33].core_layer 	slots_sent[face$o[2]->node[2]] 	0
scalar barabasi_100nodes_network.node[33].content_store 	p_hit[33] 	0.40116556797554
scalar barabasi_100nodes_network.node[33].content_store 	hits[33] 	8398
scalar barabasi_100nodes_network.node[33].content_store 	misses[33] 	12536
scalar barabasi_100nodes_network.node[33].content_store 	decision_yes[33] 	7020
scalar barabasi_100nodes_network.node[33].content_store 	decision_no[33] 	5516
scalar barabasi_100nodes_network.node[33].content_store 	decision_ratio[33] 	0.55998723675814
scalar barabasi_100nodes_network.node[33].proactive_component 	hdistance[33].proactive_component 	4.159167665323
scalar barabasi_100nodes_network.node[33].proactive_component 	downloads[33].proactive_component 	18358
scalar barabasi_100nodes_network.node[33].proactive_component 	avg_time[33].proactive_component 	0
scalar barabasi_100nodes_network.node[34].core_layer 	interests[34] 	20314
scalar barabasi_100nodes_network.node[34].core_layer 	data[34] 	12129
scalar barabasi_100nodes_network.node[34].core_layer 	slots_sent[face$o[1]->client[34]] 	11846132
scalar barabasi_100nodes_network.node[34].core_layer 	slots_sent[face$o[2]->node[2]] 	0
scalar barabasi_100nodes_network.node[34].content_store 	p_hit[34] 	0.40292409175938
scalar barabasi_100nodes_network.node[34].content_store 	hits[34] 	8185
scalar barabasi_100nodes_network.node[34].content_store 	misses[34] 	12129
scalar barabasi_100nodes_network.node[34].content_store 	decision_yes[34] 	6820
scalar barabasi_100nodes_network.node[34].content_store 	decision_no[34] 	5309
scalar barabasi_100nodes_network.node[34].content_store 	decision_ratio[34] 	0.5622887294913
scalar barabasi_100nodes_network.node[34].proactive_component 	hdistance[34].proactive_component 	4.1651773477331
scalar barabasi_100nodes_network.node[34].proactive_component 	downloads[34].proactive_component 	18241
scalar barabasi_100nodes_network.node[34].proactive_component 	avg_time[34].proactive_component 	0
scalar barabasi_100nodes_network.node[35].core_layer 	interests[35] 	37736
scalar barabasi_100nodes_network.node[35].core_layer 	data[35] 	23642
scalar barabasi_100nodes_network.node[35].core_layer 	slots_sent[face$o[1]->client[35]] 	12542604
scalar barabasi_100nodes_network.node[35].core_layer 	slots_sent[face$o[2]->node[5]] 	0
scalar barabasi_100nodes_network.node[35].core_layer 	slots_sent[face$o[3]->node[50]] 	8840314
scalar barabasi_100nodes_network.node[35].content_store 	p_hit[35] 	0.23950604197583
scalar barabasi_100nodes_network.node[35].content_store 	hits[35] 	9038
scalar barabasi_100nodes_network.node[35].content_store 	misses[35] 	28698
scalar barabasi_100nodes_network.node[35].content_store 	decision_yes[35] 	13501
scalar barabasi_100nodes_network.node[35].content_store 	decision_no[35] 	10141
scalar barabasi_100nodes_network.node[35].content_store 	decision_ratio[35] 	0.57105997800524
scalar barabasi_100nodes_network.node[35].proactive_component 	hdistance[35].proactive_component 	5.6563146386148
scalar barabasi_100nodes_network.node[35].proactive_component 	downloads[35].proactive_component 	33842
scalar barabasi_100nodes_network.node[35].proactive_component 	avg_time[35].proactive_component 	0
scalar barabasi_100nodes_network.node[36].core_layer 	interests[36] 	37908
scalar barabasi_100nodes_network.node[36].core_layer 	data[36] 	23955
scalar barabasi_100nodes_network.node[36].core_layer 	slots_sent[face$o[1]->client[36]] 	12071489
scalar barabasi_100nodes_network.node[36].core_layer 	slots_sent[face$o[2]->node[2]] 	0
scalar barabasi_100nodes_network.node[36].core_layer 	slots_sent[face$o[3]->node[75]] 	8500151
scalar barabasi_100nodes_network.node[36].content_store 	p_hit[36] 	0.23546480953888
scalar barabasi_100nodes_network.node[36].content_store 	hits[36] 	8926
scalar barabasi_100nodes_network.node[36].content_store 	misses[36] 	28982
scalar barabasi_100nodes_network.node[36].content_store 	decision_yes[36] 	13361
scalar barabasi_100nodes_network.node[36].content_store 	decision_no[36] 	10594
scalar barabasi_100nodes_network.node[36].content_store 	decision_ratio[36] 	0.55775412231267
scalar barabasi_100nodes_network.node[36].proactive_component 	hdistance[36].proactive_component 	4.1683712068144
scalar barabasi_100nodes_network.node[36].proactive_component 	downloads[36].proactive_component 	35689
scalar barabasi_100nodes_network.node[36].proactive_component 	avg_time[36].proactive_component 	0
[...]
scalar barabasi_100nodes_network.client[8] 	downloads[8].real 	15364
scalar barabasi_100nodes_network.client[8] 	avg_time[8].real 	0
scalar barabasi_100nodes_network.client[9] 	hdistance[9].real 	2.1464478739337
scalar barabasi_100nodes_network.client[9] 	downloads[9].real 	15357
scalar barabasi_100nodes_network.client[9] 	avg_time[9].real 	0
scalar barabasi_100nodes_network.client[10] 	hdistance[10].real 	1.8376443269045
scalar barabasi_100nodes_network.client[10] 	downloads[10].real 	15503
scalar barabasi_100nodes_network.client[10] 	avg_time[10].real 	0
scalar barabasi_100nodes_network.client[11] 	hdistance[11].real 	1.8021934721219
scalar barabasi_100nodes_network.client[11] 	downloads[11].real 	15227
scalar barabasi_100nodes_network.client[11] 	avg_time[11].real 	0
scalar barabasi_100nodes_network.client[12] 	hdistance[12].real 	1.7693404172606
scalar barabasi_100nodes_network.client[12] 	downloads[12].real 	15434
scalar barabasi_100nodes_network.client[12] 	avg_time[12].real 	0
scalar barabasi_100nodes_network.client[13] 	hdistance[13].real 	1.7095902746511
scalar barabasi_100nodes_network.client[13] 	downloads[13].real 	15547
scalar barabasi_100nodes_network.client[13] 	avg_time[13].real 	0
scalar barabasi_100nodes_network.client[14] 	hdistance[14].real 	1.9330196693459
scalar barabasi_100nodes_network.client[14] 	downloads[14].real 	15303
scalar barabasi_100nodes_network.client[14] 	avg_time[14].real 	0
scalar barabasi_100nodes_network.client[15] 	hdistance[15].real 	1.8779372947917
scalar barabasi_100nodes_network.client[15] 	downloads[15].real 	15533
scalar barabasi_100nodes_network.client[15] 	avg_time[15].real 	0
scalar barabasi_100nodes_network.client[16] 	hdistance[16].real 	1.6089102564103
scalar barabasi_100nodes_network.client[16] 	downloads[16].real 	15600
scalar barabasi_100nodes_network.client[16] 	avg_time[16].real 	0
scalar barabasi_100nodes_network.client[17] 	hdistance[17].real 	1.9369996745851
scalar barabasi_100nodes_network.client[17] 	downloads[17].real 	15365
scalar barabasi_100nodes_network.client[17] 	avg_time[17].real 	0
scalar barabasi_100nodes_network.client[18] 	hdistance[18].real 	1.705973522764
scalar barabasi_100nodes_network.client[18] 	downloads[18].real 	15485
scalar barabasi_100nodes_network.client[18] 	avg_time[18].real 	0
scalar barabasi_100nodes_network.client[19] 	hdistance[19].real 	1.9022082018927
scalar barabasi_100nodes_network.client[19] 	downloads[19].real 	15216
scalar barabasi_100nodes_network.client[19] 	avg_time[19].real 	0
scalar barabasi_100nodes_network.client[20] 	hdistance[20].real 	1.7236375362786
scalar barabasi_100nodes_network.client[20] 	downloads[20].real 	15505
scalar barabasi_100nodes_network.client[20] 	avg_time[20].real 	0
scalar barabasi_100nodes_network.client[21] 	hdistance[21].real 	1.892591626451
scalar barabasi_100nodes_network.client[21] 	downloads[21].real 	15334
scalar barabasi_100nodes_network.client[21] 	avg_time[21].real 	0
scalar barabasi_100nodes_network.client[22] 	hdistance[22].real 	1.8038860103627
scalar barabasi_100nodes_network.client[22] 	downloads[22].real 	15440
scalar barabasi_100nodes_network.client[22] 	avg_time[22].real 	0
scalar barabasi_100nodes_network.client[23] 	hdistance[23].real 	2.0268364348678
scalar barabasi_100nodes_network.client[23] 	downloads[23].real 	15315
scalar barabasi_100nodes_network.client[23] 	avg_time[23].real 	0
scalar barabasi_100nodes_network.client[24] 	hdistance[24].real 	2.0860375886063
scalar barabasi_100nodes_network.client[24] 	downloads[24].real 	15377
scalar barabasi_100nodes_network.client[24] 	avg_time[24].real 	0
scalar barabasi_100nodes_network.client[25] 	hdistance[25].real 	1.6822235240513
scalar barabasi_100nodes_network.client[25] 	downloads[25].real 	15363
scalar barabasi_100nodes_network.client[25] 	avg_time[25].real 	0
scalar barabasi_100nodes_network.client[26] 	hdistance[26].real 	1.6873798846893
scalar barabasi_100nodes_network.client[26] 	downloads[26].real 	15610
scalar barabasi_100nodes_network.client[26] 	avg_time[26].real 	0
scalar barabasi_100nodes_network.client[27] 	hdistance[27].real 	1.7520826606393
scalar barabasi_100nodes_network.client[27] 	downloads[27].real 	15485
scalar barabasi_100nodes_network.client[27] 	avg_time[27].real 	0
scalar barabasi_100nodes_network.client[28] 	hdistance[28].real 	1.8297169505797
scalar barabasi_100nodes_network.client[28] 	downloads[28].real 	15439
scalar barabasi_100nodes_network.client[28] 	avg_time[28].real 	0
scalar barabasi_100nodes_network.client[29] 	hdistance[29].real 	1.6502174199499
scalar barabasi_100nodes_network.client[29] 	downloads[29].real 	15178
scalar barabasi_100nodes_network.client[29] 	avg_time[29].real 	0
scalar barabasi_100nodes_network.client[30] 	hdistance[30].real 	1.4128446360904
scalar barabasi_100nodes_network.client[30] 	downloads[30].real 	15306
scalar barabasi_100nodes_network.client[30] 	avg_time[30].real 	0
scalar barabasi_100nodes_network.client[31] 	hdistance[31].real 	1.9240464994775
scalar barabasi_100nodes_network.client[31] 	downloads[31].real 	15312
scalar barabasi_100nodes_network.client[31] 	avg_time[31].real 	0
scalar barabasi_100nodes_network.client[32] 	hdistance[32].real 	1.6527085625526
scalar barabasi_100nodes_network.client[32] 	downloads[32].real 	15451
scalar barabasi_100nodes_network.client[32] 	avg_time[32].real 	0
scalar barabasi_100nodes_network.client[33] 	hdistance[33].real 	1.6435335322351
scalar barabasi_100nodes_network.client[33] 	downloads[33].real 	15418
scalar barabasi_100nodes_network.client[33] 	avg_time[33].real 	0
scalar barabasi_100nodes_network.client[34] 	hdistance[34].real 	1.6327890703099
scalar barabasi_100nodes_network.client[34] 	downloads[34].real 	15005
scalar barabasi_100nodes_network.client[34] 	avg_time[34].real 	0
scalar barabasi_100nodes_network.client[35] 	hdistance[35].real 	2.1530168214587
scalar barabasi_100nodes_network.client[35] 	downloads[35].real 	15397
scalar barabasi_100nodes_network.client[35] 	avg_time[35].real 	0
scalar barabasi_100nodes_network.client[36] 	hdistance[36].real 	1.6788907606583
scalar barabasi_100nodes_network.client[36] 	downloads[36].real 	15434
scalar barabasi_100nodes_network.client[36] 	avg_time[36].real 	0
scalar barabasi_100nodes_network.client[37] 	hdistance[37].real 	1.8113329040567
scalar barabasi_100nodes_network.client[37] 	downloads[37].real 	15530
scalar barabasi_100nodes_network.client[37] 	avg_time[37].real 	0
scalar barabasi_100nodes_network.client[38] 	hdistance[38].real 	1.9360273707314
scalar barabasi_100nodes_network.client[38] 	downloads[38].real 	15491
scalar barabasi_100nodes_network.client[38] 	avg_time[38].real 	0
scalar barabasi_100nodes_network.client[39] 	hdistance[39].real 	1.9685635465452
scalar barabasi_100nodes_network.client[39] 	downloads[39].real 	15587
scalar barabasi_100nodes_network.client[39] 	avg_time[39].real 	0
scalar barabasi_100nodes_network.client[40] 	hdistance[40].real 	2.0941654834129
scalar barabasi_100nodes_network.client[40] 	downloads[40].real 	15494
scalar barabasi_100nodes_network.client[40] 	avg_time[40].real 	0
scalar barabasi_100nodes_network.client[41] 	hdistance[41].real 	1.7704993128722
scalar barabasi_100nodes_network.client[41] 	downloads[41].real 	15281
scalar barabasi_100nodes_network.client[41] 	avg_time[41].real 	0
scalar barabasi_100nodes_network.client[42] 	hdistance[42].real 	1.8185817465529
scalar barabasi_100nodes_network.client[42] 	downloads[42].real 	15230
scalar barabasi_100nodes_network.client[42] 	avg_time[42].real 	0
scalar barabasi_100nodes_network.client[43] 	hdistance[43].real 	1.745384367964
scalar barabasi_100nodes_network.client[43] 	downloads[43].real 	15545
scalar barabasi_100nodes_network.client[43] 	avg_time[43].real 	0
scalar barabasi_100nodes_network.client[44] 	hdistance[44].real 	1.7943147076042
scalar barabasi_100nodes_network.client[44] 	downloads[44].real 	15373
scalar barabasi_100nodes_network.client[44] 	avg_time[44].real 	0
scalar barabasi_100nodes_network.client[45] 	hdistance[45].real 	1.5603082348332
scalar barabasi_100nodes_network.client[45] 	downloads[45].real 	15313
scalar barabasi_100nodes_network.client[45] 	avg_time[45].real 	0
scalar barabasi_100nodes_network.client[46] 	hdistance[46].real 	2.4143718856543
scalar barabasi_100nodes_network.client[46] 	downloads[46].real 	15252
scalar barabasi_100nodes_network.client[46] 	avg_time[46].real 	0
scalar barabasi_100nodes_network.client[47] 	hdistance[47].real 	2.057905436422
scalar barabasi_100nodes_network.client[47] 	downloads[47].real 	15249
scalar barabasi_100nodes_network.client[47] 	avg_time[47].real 	0
scalar barabasi_100nodes_network.client[48] 	hdistance[48].real 	1.7076983196561
scalar barabasi_100nodes_network.client[48] 	downloads[48].real 	15354
scalar barabasi_100nodes_network.client[48] 	avg_time[48].real 	0
scalar barabasi_100nodes_network.client[49] 	hdistance[49].real 	1.4753821138211
scalar barabasi_100nodes_network.client[49] 	downloads[49].real 	15375
scalar barabasi_100nodes_network.client[49] 	avg_time[49].real 	0
scalar barabasi_100nodes_network.client[50] 	hdistance[50].real 	2.4982375184259
scalar barabasi_100nodes_network.client[50] 	downloads[50].real 	15603
scalar barabasi_100nodes_network.client[50] 	avg_time[50].real 	0
scalar barabasi_100nodes_network.client[51] 	hdistance[51].real 	2.0699273482097
scalar barabasi_100nodes_network.client[51] 	downloads[51].real 	15416
scalar barabasi_100nodes_network.client[51] 	avg_time[51].real 	0
scalar barabasi_100nodes_network.client[52] 	hdistance[52].real 	1.9801140044047
scalar barabasi_100nodes_network.client[52] 	downloads[52].real 	15438
scalar barabasi_100nodes_network.client[52] 	avg_time[52].real 	0
scalar barabasi_100nodes_network.client[53] 	hdistance[53].real 	1.9457410337553
scalar barabasi_100nodes_network.client[53] 	downloads[53].real 	15168
scalar barabasi_100nodes_network.client[53] 	avg_time[53].real 	0
scalar barabasi_100nodes_network.client[54] 	hdistance[54].real 	1.915062653404
scalar barabasi_100nodes_network.client[54] 	downloads[54].real 	15482
scalar barabasi_100nodes_network.client[54] 	avg_time[54].real 	0
scalar barabasi_100nodes_network.client[55] 	hdistance[55].real 	1.8731392008357
scalar barabasi_100nodes_network.client[55] 	downloads[55].real 	15316
scalar barabasi_100nodes_network.client[55] 	avg_time[55].real 	0
scalar barabasi_100nodes_network.client[56] 	hdistance[56].real 	2.0998504843009
scalar barabasi_100nodes_network.client[56] 	downloads[56].real 	15383
scalar barabasi_100nodes_network.client[56] 	avg_time[56].real 	0
scalar barabasi_100nodes_network.client[57] 	hdistance[57].real 	2.1237434334263
scalar barabasi_100nodes_network.client[57] 	downloads[57].real 	15419
scalar barabasi_100nodes_network.client[57] 	avg_time[57].real 	0
scalar barabasi_100nodes_network.client[58] 	hdistance[58].real 	1.8475918473322
scalar barabasi_100nodes_network.client[58] 	downloads[58].real 	15406
scalar barabasi_100nodes_network.client[58] 	avg_time[58].real 	0
scalar barabasi_100nodes_network.client[59] 	hdistance[59].real 	1.6210992680108
scalar barabasi_100nodes_network.client[59] 	downloads[59].real 	15574
scalar barabasi_100nodes_network.client[59] 	avg_time[59].real 	0
scalar barabasi_100nodes_network.client[60] 	hdistance[60].real 	1.8618318629995
scalar barabasi_100nodes_network.client[60] 	downloads[60].real 	15416
scalar barabasi_100nodes_network.client[60] 	avg_time[60].real 	0
scalar barabasi_100nodes_network.client[61] 	hdistance[61].real 	1.948801036941
scalar barabasi_100nodes_network.client[61] 	downloads[61].real 	15430
scalar barabasi_100nodes_network.client[61] 	avg_time[61].real 	0
scalar barabasi_100nodes_network.client[62] 	hdistance[62].real 	1.6908228051049
scalar barabasi_100nodes_network.client[62] 	downloads[62].real 	15593
scalar barabasi_100nodes_network.client[62] 	avg_time[62].real 	0
scalar barabasi_100nodes_network.client[63] 	hdistance[63].real 	2.1222956341495
scalar barabasi_100nodes_network.client[63] 	downloads[63].real 	15438
scalar barabasi_100nodes_network.client[63] 	avg_time[63].real 	0
scalar barabasi_100nodes_network.client[64] 	hdistance[64].real 	1.97190865447
scalar barabasi_100nodes_network.client[64] 	downloads[64].real 	15414
scalar barabasi_100nodes_network.client[64] 	avg_time[64].real 	0
scalar barabasi_100nodes_network.client[65] 	hdistance[65].real 	2.25230549422
scalar barabasi_100nodes_network.client[65] 	downloads[65].real 	15398
scalar barabasi_100nodes_network.client[65] 	avg_time[65].real 	0
scalar barabasi_100nodes_network.client[66] 	hdistance[66].real 	1.947934678194
scalar barabasi_100nodes_network.client[66] 	downloads[66].real 	15615
scalar barabasi_100nodes_network.client[66] 	avg_time[66].real 	0
scalar barabasi_100nodes_network.client[67] 	hdistance[67].real 	1.9147829437452
scalar barabasi_100nodes_network.client[67] 	downloads[67].real 	15572
scalar barabasi_100nodes_network.client[67] 	avg_time[67].real 	0
scalar barabasi_100nodes_network.client[68] 	hdistance[68].real 	1.5965106438383
scalar barabasi_100nodes_network.client[68] 	downloads[68].real 	15361
scalar barabasi_100nodes_network.client[68] 	avg_time[68].real 	0
scalar barabasi_100nodes_network.client[69] 	hdistance[69].real 	1.8169955855622
scalar barabasi_100nodes_network.client[69] 	downloads[69].real 	15404
scalar barabasi_100nodes_network.client[69] 	avg_time[69].real 	0
scalar barabasi_100nodes_network.client[70] 	hdistance[70].real 	2.1178267368558
scalar barabasi_100nodes_network.client[70] 	downloads[70].real 	15387
scalar barabasi_100nodes_network.client[70] 	avg_time[70].real 	0
scalar barabasi_100nodes_network.client[71] 	hdistance[71].real 	2.1402676715177
scalar barabasi_100nodes_network.client[71] 	downloads[71].real 	15392
scalar barabasi_100nodes_network.client[71] 	avg_time[71].real 	0
scalar barabasi_100nodes_network.client[72] 	hdistance[72].real 	1.9842524787765
scalar barabasi_100nodes_network.client[72] 	downloads[72].real 	15431
scalar barabasi_100nodes_network.client[72] 	avg_time[72].real 	0
scalar barabasi_100nodes_network.client[73] 	hdistance[73].real 	1.8584998362267
scalar barabasi_100nodes_network.client[73] 	downloads[73].real 	15265
scalar barabasi_100nodes_network.client[73] 	avg_time[73].real 	0
scalar barabasi_100nodes_network.client[74] 	hdistance[74].real 	1.6913250342176
scalar barabasi_100nodes_network.client[74] 	downloads[74].real 	15343
scalar barabasi_100nodes_network.client[74] 	avg_time[74].real 	0
scalar barabasi_100nodes_network.client[75] 	hdistance[75].real 	1.9310074991849
scalar barabasi_100nodes_network.client[75] 	downloads[75].real 	15335
scalar barabasi_100nodes_network.client[75] 	avg_time[75].real 	0
scalar barabasi_100nodes_network.client[76] 	hdistance[76].real 	2.1231482085754
scalar barabasi_100nodes_network.client[76] 	downloads[76].real 	15323
scalar barabasi_100nodes_network.client[76] 	avg_time[76].real 	0
scalar barabasi_100nodes_network.client[77] 	hdistance[77].real 	1.9852194296132
scalar barabasi_100nodes_network.client[77] 	downloads[77].real 	15358
scalar barabasi_100nodes_network.client[77] 	avg_time[77].real 	0
scalar barabasi_100nodes_network.client[78] 	hdistance[78].real 	2.0336338640578
scalar barabasi_100nodes_network.client[78] 	downloads[78].real 	15639
scalar barabasi_100nodes_network.client[78] 	avg_time[78].real 	0
scalar barabasi_100nodes_network.client[79] 	hdistance[79].real 	1.60589569161
scalar barabasi_100nodes_network.client[79] 	downloads[79].real 	15435
scalar barabasi_100nodes_network.client[79] 	avg_time[79].real 	0
scalar barabasi_100nodes_network.client[80] 	hdistance[80].real 	2.1135071554597
scalar barabasi_100nodes_network.client[80] 	downloads[80].real 	15303
scalar barabasi_100nodes_network.client[80] 	avg_time[80].real 	0
scalar barabasi_100nodes_network.client[81] 	hdistance[81].real 	2.2439292883507
scalar barabasi_100nodes_network.client[81] 	downloads[81].real 	15443
scalar barabasi_100nodes_network.client[81] 	avg_time[81].real 	0
scalar barabasi_100nodes_network.client[82] 	hdistance[82].real 	2.2368863049096
scalar barabasi_100nodes_network.client[82] 	downloads[82].real 	15480
scalar barabasi_100nodes_network.client[82] 	avg_time[82].real 	0
scalar barabasi_100nodes_network.client[83] 	hdistance[83].real 	2.0412377684585
scalar barabasi_100nodes_network.client[83] 	downloads[83].real 	15738
scalar barabasi_100nodes_network.client[83] 	avg_time[83].real 	0
scalar barabasi_100nodes_network.client[84] 	hdistance[84].real 	2.0134599128682
scalar barabasi_100nodes_network.client[84] 	downloads[84].real 	15379
scalar barabasi_100nodes_network.client[84] 	avg_time[84].real 	0
scalar barabasi_100nodes_network.client[85] 	hdistance[85].real 	1.5992599324851
scalar barabasi_100nodes_network.client[85] 	downloads[85].real 	15404
scalar barabasi_100nodes_network.client[85] 	avg_time[85].real 	0
scalar barabasi_100nodes_network.client[86] 	hdistance[86].real 	1.9863336166874
scalar barabasi_100nodes_network.client[86] 	downloads[86].real 	15293
scalar barabasi_100nodes_network.client[86] 	avg_time[86].real 	0
scalar barabasi_100nodes_network.client[87] 	hdistance[87].real 	2.2305702832019
scalar barabasi_100nodes_network.client[87] 	downloads[87].real 	15466
scalar barabasi_100nodes_network.client[87] 	avg_time[87].real 	0
scalar barabasi_100nodes_network.client[88] 	hdistance[88].real 	1.2755895225031
scalar barabasi_100nodes_network.client[88] 	downloads[88].real 	15309
scalar barabasi_100nodes_network.client[88] 	avg_time[88].real 	0
scalar barabasi_100nodes_network.client[89] 	hdistance[89].real 	2.0866636440184
scalar barabasi_100nodes_network.client[89] 	downloads[89].real 	15439
scalar barabasi_100nodes_network.client[89] 	avg_time[89].real 	0
scalar barabasi_100nodes_network.client[90] 	hdistance[90].real 	1.4872044055718
scalar barabasi_100nodes_network.client[90] 	downloads[90].real 	15435
scalar barabasi_100nodes_network.client[90] 	avg_time[90].real 	0
scalar barabasi_100nodes_network.client[91] 	hdistance[91].real 	1.6752894005044
scalar barabasi_100nodes_network.client[91] 	downloads[91].real 	15463
scalar barabasi_100nodes_network.client[91] 	avg_time[91].real 	0
scalar barabasi_100nodes_network.client[92] 	hdistance[92].real 	2.3005191434134
scalar barabasi_100nodes_network.client[92] 	downloads[92].real 	15410
scalar barabasi_100nodes_network.client[92] 	avg_time[92].real 	0
scalar barabasi_100nodes_network.client[93] 	hdistance[93].real 	1.8099039460021
scalar barabasi_100nodes_network.client[93] 	downloads[93].real 	15408
scalar barabasi_100nodes_network.client[93] 	avg_time[93].real 	0
scalar barabasi_100nodes_network.client[94] 	hdistance[94].real 	2.13347415671
scalar barabasi_100nodes_network.client[94] 	downloads[94].real 	15149
scalar barabasi_100nodes_network.client[94] 	avg_time[94].real 	0
scalar barabasi_100nodes_network.client[95] 	hdistance[95].real 	2.4486579975658
scalar barabasi_100nodes_network.client[95] 	downloads[95].real 	15611
scalar barabasi_100nodes_network.client[95] 	avg_time[95].real 	0
scalar barabasi_100nodes_network.client[96] 	hdistance[96].real 	2.3117121848739
scalar barabasi_100nodes_network.client[96] 	downloads[96].real 	15232
scalar barabasi_100nodes_network.client[96] 	avg_time[96].real 	0
scalar barabasi_100nodes_network.client[97] 	hdistance[97].real 	2.1201863957025
scalar barabasi_100nodes_network.client[97] 	downloads[97].real 	15451
scalar barabasi_100nodes_network.client[97] 	avg_time[97].real 	0
scalar barabasi_100nodes_network.client[98] 	hdistance[98].real 	2.4906027219702
scalar barabasi_100nodes_network.client[98] 	downloads[98].real 	15430
scalar barabasi_100nodes_network.client[98] 	avg_time[98].real 	0
scalar barabasi_100nodes_network.client[99] 	hdistance[99].real 	2.0157320973954
scalar barabasi_100nodes_network.client[99] 	downloads[99].real 	15319
scalar barabasi_100nodes_network.client[99] 	avg_time[99].real 	0
