version 2
run General-15-20140902-16:35:52-17313
attr D fix0.01
attr F nrr
attr R lru
attr a 1
attr configname General
attr csize 1e3
attr ctlg 1e5
attr datetime 20140902-16:35:52
attr experiment General
attr inifile omnetpp.ini
attr iterationvars "$net=abilene_cost, $rep=9, $priceratiovalue=10, $weights=0.333_0.333_0.334, $lambda=100, $a=1, $ctlg=1e5, $F=nrr, $ttl=10, $D=fix0.01, $xi=1, $R=lru, $csize=1e3, $pricebits=0, $window=60, $variance=0.05, $mytime=1800"
attr iterationvars2 "$net=abilene_cost, $rep=9, $priceratiovalue=10, $weights=0.333_0.333_0.334, $lambda=100, $a=1, $ctlg=1e5, $F=nrr, $ttl=10, $D=fix0.01, $xi=1, $R=lru, $csize=1e3, $pricebits=0, $window=60, $variance=0.05, $mytime=1800, $repetition=0"
attr lambda 100
attr measurement "$net=abilene_cost, $rep=9, $priceratiovalue=10, $weights=0.333_0.333_0.334, $lambda=100, $a=1, $ctlg=1e5, $F=nrr, $ttl=10, $D=fix0.01, $xi=1, $R=lru, $csize=1e3, $pricebits=0, $window=60, $variance=0.05, $mytime=1800"
attr mytime 1800
attr net abilene_cost
attr network networks.${net=abilene_cost}_network
attr pricebits 0
attr priceratiovalue 10
attr processid 17313
attr rep 9
attr repetition 0
attr replication #0
attr resultdir results
attr runnumber 15
attr seedset 9
attr ttl 10
attr variance 0.05
attr weights 0.333_0.333_0.334
attr window 60
attr xi 1

scalar . 	a 	1
scalar . 	csize 	1e3
scalar . 	ctlg 	1e5
scalar . 	lambda 	100
scalar . 	mytime 	1800
scalar . 	pricebits 	0
scalar . 	priceratiovalue 	10
scalar . 	rep 	9
scalar . 	ttl 	10
scalar . 	variance 	0.05
scalar . 	window 	60
scalar . 	xi 	1
scalar abilene_cost_network.content_distribution 	repo-0 	1
scalar abilene_cost_network.content_distribution 	repo-1 	9
scalar abilene_cost_network.content_distribution 	repo-2 	5
scalar abilene_cost_network.content_distribution 	client-0 	0
scalar abilene_cost_network.content_distribution 	client-1 	3
scalar abilene_cost_network.content_distribution 	client-2 	7
scalar abilene_cost_network.content_distribution 	repo-0_card 	33404
scalar abilene_cost_network.content_distribution 	repo-0_price 	10
scalar abilene_cost_network.content_distribution 	repo-1_card 	33170
scalar abilene_cost_network.content_distribution 	repo-1_price 	0
scalar abilene_cost_network.content_distribution 	repo-2_card 	33426
scalar abilene_cost_network.content_distribution 	repo-2_price 	1
scalar abilene_cost_network.statistics 	repo_popularity[0] 	0.31986479737952
scalar abilene_cost_network.statistics 	repo_popularity[1] 	0.28163181829958
scalar abilene_cost_network.statistics 	repo_popularity[2] 	0.39850338432091
scalar abilene_cost_network.statistics 	stabilization_time 	679.5
scalar abilene_cost_network.statistics 	p_hit 	0.22409932657978
scalar abilene_cost_network.statistics 	interests 	117460.09090909
scalar abilene_cost_network.statistics 	data 	68375.909090909
scalar abilene_cost_network.statistics 	hdistance 	1.8567763578576
scalar abilene_cost_network.statistics 	avg_time 	0.009144559463
scalar abilene_cost_network.statistics 	downloads 	539838
scalar abilene_cost_network.statistics 	total_cost 	1017314
scalar abilene_cost_network.statistics 	total_replicas 	100000
scalar abilene_cost_network.statistics 	inner_hit 	0.53642203772243
scalar abilene_cost_network.statistics 	interests_sent 	539922
scalar abilene_cost_network.node[0].core_layer 	interests[0] 	180969
scalar abilene_cost_network.node[0].core_layer 	data[0] 	109590
scalar abilene_cost_network.node[0].core_layer 	repo_int[0] 	250257
scalar abilene_cost_network.node[0].content_store 	p_hit[0] 	0.39419458581304
scalar abilene_cost_network.node[0].content_store 	hits[0] 	71337
scalar abilene_cost_network.node[0].content_store 	misses[0] 	109632
scalar abilene_cost_network.node[0].content_store 	decision_yes[0] 	1114
scalar abilene_cost_network.node[0].content_store 	decision_no[0] 	108476
scalar abilene_cost_network.node[0].content_store 	decision_ratio[0] 	0.010165161054841
scalar abilene_cost_network.node[1].core_layer 	interests[1] 	148374
scalar abilene_cost_network.node[1].core_layer 	repo_load[1] 	94008
scalar abilene_cost_network.node[1].core_layer 	data[1] 	41871
scalar abilene_cost_network.node[1].content_store 	p_hit[1] 	0.084192648307655
scalar abilene_cost_network.node[1].content_store 	hits[1] 	12492
scalar abilene_cost_network.node[1].content_store 	misses[1] 	135882
scalar abilene_cost_network.node[1].content_store 	decision_yes[1] 	1365
scalar abilene_cost_network.node[1].content_store 	decision_no[1] 	134514
scalar abilene_cost_network.node[1].content_store 	decision_ratio[1] 	0.010045702426424
scalar abilene_cost_network.node[2].core_layer 	interests[2] 	150775
scalar abilene_cost_network.node[2].core_layer 	data[2] 	136192
scalar abilene_cost_network.node[2].content_store 	p_hit[2] 	0.096713646161499
scalar abilene_cost_network.node[2].content_store 	hits[2] 	14582
scalar abilene_cost_network.node[2].content_store 	misses[2] 	136193
scalar abilene_cost_network.node[2].content_store 	decision_yes[2] 	1336
scalar abilene_cost_network.node[2].content_store 	decision_no[2] 	134856
scalar abilene_cost_network.node[2].content_store 	decision_ratio[2] 	0.0098096804511278
scalar abilene_cost_network.node[3].core_layer 	interests[3] 	259901
scalar abilene_cost_network.node[3].core_layer 	data[3] 	184418
scalar abilene_cost_network.node[3].content_store 	p_hit[3] 	0.29024128418128
scalar abilene_cost_network.node[3].content_store 	hits[3] 	75434
scalar abilene_cost_network.node[3].content_store 	misses[3] 	184467
scalar abilene_cost_network.node[3].content_store 	decision_yes[3] 	1782
scalar abilene_cost_network.node[3].content_store 	decision_no[3] 	182636
scalar abilene_cost_network.node[3].content_store 	decision_ratio[3] 	0.0096628311770001
scalar abilene_cost_network.node[4].core_layer 	interests[4] 	61802
scalar abilene_cost_network.node[4].core_layer 	data[4] 	54798
scalar abilene_cost_network.node[4].content_store 	p_hit[4] 	0.11329730429436
scalar abilene_cost_network.node[4].content_store 	hits[4] 	7002
scalar abilene_cost_network.node[4].content_store 	misses[4] 	54800
scalar abilene_cost_network.node[4].content_store 	decision_yes[4] 	524
scalar abilene_cost_network.node[4].content_store 	decision_no[4] 	54274
scalar abilene_cost_network.node[4].content_store 	decision_ratio[4] 	0.009562392788058
scalar abilene_cost_network.node[5].core_layer 	interests[5] 	82314
scalar abilene_cost_network.node[5].core_layer 	repo_load[5] 	77234
scalar abilene_cost_network.node[5].core_layer 	data[5] 	0
scalar abilene_cost_network.node[5].content_store 	p_hit[5] 	0.0617148966154
scalar abilene_cost_network.node[5].content_store 	hits[5] 	5080
scalar abilene_cost_network.node[5].content_store 	misses[5] 	77234
scalar abilene_cost_network.node[5].content_store 	decision_yes[5] 	790
scalar abilene_cost_network.node[5].content_store 	decision_no[5] 	76444
scalar abilene_cost_network.node[5].content_store 	decision_ratio[5] 	0.010228655773364
scalar abilene_cost_network.node[6].core_layer 	interests[6] 	32788
scalar abilene_cost_network.node[6].core_layer 	data[6] 	27515
scalar abilene_cost_network.node[6].content_store 	p_hit[6] 	0.16082103208491
scalar abilene_cost_network.node[6].content_store 	hits[6] 	5273
scalar abilene_cost_network.node[6].content_store 	misses[6] 	27515
scalar abilene_cost_network.node[6].content_store 	decision_yes[6] 	282
scalar abilene_cost_network.node[6].content_store 	decision_no[6] 	27233
scalar abilene_cost_network.node[6].content_store 	decision_ratio[6] 	0.010248955115392
scalar abilene_cost_network.node[7].core_layer 	interests[7] 	191495
scalar abilene_cost_network.node[7].core_layer 	data[7] 	112620
scalar abilene_cost_network.node[7].content_store 	p_hit[7] 	0.41178098644873
scalar abilene_cost_network.node[7].content_store 	hits[7] 	78854
scalar abilene_cost_network.node[7].content_store 	misses[7] 	112641
scalar abilene_cost_network.node[7].content_store 	decision_yes[7] 	1114
scalar abilene_cost_network.node[7].content_store 	decision_no[7] 	111506
scalar abilene_cost_network.node[7].content_store 	decision_ratio[7] 	0.0098916711063754
scalar abilene_cost_network.node[8].core_layer 	interests[8] 	66289
scalar abilene_cost_network.node[8].core_layer 	data[8] 	57069
scalar abilene_cost_network.node[8].content_store 	p_hit[8] 	0.13907284768212
scalar abilene_cost_network.node[8].content_store 	hits[8] 	9219
scalar abilene_cost_network.node[8].content_store 	misses[8] 	57070
scalar abilene_cost_network.node[8].content_store 	decision_yes[8] 	590
scalar abilene_cost_network.node[8].content_store 	decision_no[8] 	56479
scalar abilene_cost_network.node[8].content_store 	decision_ratio[8] 	0.010338362333316
scalar abilene_cost_network.node[9].core_layer 	interests[9] 	85131
scalar abilene_cost_network.node[9].core_layer 	repo_load[9] 	79015
scalar abilene_cost_network.node[9].core_layer 	data[9] 	0
scalar abilene_cost_network.node[9].content_store 	p_hit[9] 	0.07184221963797
scalar abilene_cost_network.node[9].content_store 	hits[9] 	6116
scalar abilene_cost_network.node[9].content_store 	misses[9] 	79015
scalar abilene_cost_network.node[9].content_store 	decision_yes[9] 	832
scalar abilene_cost_network.node[9].content_store 	decision_no[9] 	78183
scalar abilene_cost_network.node[9].content_store 	decision_ratio[9] 	0.010529646269696
scalar abilene_cost_network.node[10].core_layer 	interests[10] 	32223
scalar abilene_cost_network.node[10].core_layer 	data[10] 	28062
scalar abilene_cost_network.node[10].content_store 	p_hit[10] 	0.12913136579462
scalar abilene_cost_network.node[10].content_store 	hits[10] 	4161
scalar abilene_cost_network.node[10].content_store 	misses[10] 	28062
scalar abilene_cost_network.node[10].content_store 	decision_yes[10] 	281
scalar abilene_cost_network.node[10].content_store 	decision_no[10] 	27781
scalar abilene_cost_network.node[10].content_store 	decision_ratio[10] 	0.010013541443946
scalar abilene_cost_network.client[0] 	hdistance[0] 	1.9935752811854
scalar abilene_cost_network.client[0] 	downloads[0] 	180397
scalar abilene_cost_network.client[0] 	avg_time[0] 	0.010495212871
scalar abilene_cost_network.client[0] 	interests_sent[0] 	180439
scalar abilene_cost_network.client[3] 	hdistance[3] 	1.7719685074444
scalar abilene_cost_network.client[3] 	downloads[3] 	179598
scalar abilene_cost_network.client[3] 	avg_time[3] 	0.008458154505
scalar abilene_cost_network.client[3] 	interests_sent[3] 	179620
scalar abilene_cost_network.client[7] 	hdistance[7] 	1.804785284943
scalar abilene_cost_network.client[7] 	downloads[7] 	179843
scalar abilene_cost_network.client[7] 	avg_time[7] 	0.008480311015
scalar abilene_cost_network.client[7] 	interests_sent[7] 	179863
