version 2
run General-19-20140902-16:40:50-17328
attr D fix0.01
attr F nrr
attr R lru
attr a 1
attr configname General
attr csize 1e3
attr ctlg 1e5
attr datetime 20140902-16:40:50
attr experiment General
attr inifile omnetpp.ini
attr iterationvars "$net=abilene_cost, $rep=10, $priceratiovalue=10, $weights=0.333_0.333_0.334, $lambda=100, $a=1, $ctlg=1e5, $F=nrr, $ttl=10, $D=fix0.01, $xi=1, $R=lru, $csize=1e3, $pricebits=0, $window=60, $variance=0.05, $mytime=1800"
attr iterationvars2 "$net=abilene_cost, $rep=10, $priceratiovalue=10, $weights=0.333_0.333_0.334, $lambda=100, $a=1, $ctlg=1e5, $F=nrr, $ttl=10, $D=fix0.01, $xi=1, $R=lru, $csize=1e3, $pricebits=0, $window=60, $variance=0.05, $mytime=1800, $repetition=0"
attr lambda 100
attr measurement "$net=abilene_cost, $rep=10, $priceratiovalue=10, $weights=0.333_0.333_0.334, $lambda=100, $a=1, $ctlg=1e5, $F=nrr, $ttl=10, $D=fix0.01, $xi=1, $R=lru, $csize=1e3, $pricebits=0, $window=60, $variance=0.05, $mytime=1800"
attr mytime 1800
attr net abilene_cost
attr network networks.${net=abilene_cost}_network
attr pricebits 0
attr priceratiovalue 10
attr processid 17328
attr rep 10
attr repetition 0
attr replication #0
attr resultdir results
attr runnumber 19
attr seedset 10
attr ttl 10
attr variance 0.05
attr weights 0.333_0.333_0.334
attr window 60
attr xi 1

scalar . 	a 	1
scalar . 	csize 	1e3
scalar . 	ctlg 	1e5
scalar . 	lambda 	100
scalar . 	mytime 	1800
scalar . 	pricebits 	0
scalar . 	priceratiovalue 	10
scalar . 	rep 	10
scalar . 	ttl 	10
scalar . 	variance 	0.05
scalar . 	window 	60
scalar . 	xi 	1
scalar abilene_cost_network.content_distribution 	repo-0 	2
scalar abilene_cost_network.content_distribution 	repo-1 	7
scalar abilene_cost_network.content_distribution 	repo-2 	0
scalar abilene_cost_network.content_distribution 	client-0 	7
scalar abilene_cost_network.content_distribution 	client-1 	10
scalar abilene_cost_network.content_distribution 	client-2 	6
scalar abilene_cost_network.content_distribution 	repo-0_card 	33054
scalar abilene_cost_network.content_distribution 	repo-0_price 	1
scalar abilene_cost_network.content_distribution 	repo-1_card 	33533
scalar abilene_cost_network.content_distribution 	repo-1_price 	0
scalar abilene_cost_network.content_distribution 	repo-2_card 	33413
scalar abilene_cost_network.content_distribution 	repo-2_price 	10
scalar abilene_cost_network.statistics 	repo_popularity[0] 	0.39235916228158
scalar abilene_cost_network.statistics 	repo_popularity[1] 	0.27346308917966
scalar abilene_cost_network.statistics 	repo_popularity[2] 	0.33417774853877
scalar abilene_cost_network.statistics 	stabilization_time 	36060
scalar abilene_cost_network.statistics 	p_hit 	0.21965560348079
scalar abilene_cost_network.statistics 	interests 	112064.27272727
scalar abilene_cost_network.statistics 	data 	62941
scalar abilene_cost_network.statistics 	hdistance 	1.780970394223
scalar abilene_cost_network.statistics 	avg_time 	0.008480315715
scalar abilene_cost_network.statistics 	downloads 	540304
scalar abilene_cost_network.statistics 	total_cost 	880681
scalar abilene_cost_network.statistics 	total_replicas 	100000
scalar abilene_cost_network.statistics 	inner_hit 	0.50117341348574
scalar abilene_cost_network.statistics 	interests_sent 	540359
scalar abilene_cost_network.node[0].core_layer 	interests[0] 	84828
scalar abilene_cost_network.node[0].core_layer 	repo_load[0] 	79711
scalar abilene_cost_network.node[0].core_layer 	data[0] 	0
scalar abilene_cost_network.node[0].core_layer 	repo_int[0] 	269518
scalar abilene_cost_network.node[0].content_store 	p_hit[0] 	0.060322063469609
scalar abilene_cost_network.node[0].content_store 	hits[0] 	5117
scalar abilene_cost_network.node[0].content_store 	misses[0] 	79711
scalar abilene_cost_network.node[0].content_store 	decision_yes[0] 	770
scalar abilene_cost_network.node[0].content_store 	decision_no[0] 	78941
scalar abilene_cost_network.node[0].content_store 	decision_ratio[0] 	0.0096598963756571
scalar abilene_cost_network.node[1].core_layer 	interests[1] 	91424
scalar abilene_cost_network.node[1].core_layer 	data[1] 	85331
scalar abilene_cost_network.node[1].content_store 	p_hit[1] 	0.066656457822891
scalar abilene_cost_network.node[1].content_store 	hits[1] 	6094
scalar abilene_cost_network.node[1].content_store 	misses[1] 	85330
scalar abilene_cost_network.node[1].content_store 	decision_yes[1] 	861
scalar abilene_cost_network.node[1].content_store 	decision_no[1] 	84470
scalar abilene_cost_network.node[1].content_store 	decision_ratio[1] 	0.010090119651709
scalar abilene_cost_network.node[2].core_layer 	interests[2] 	147461
scalar abilene_cost_network.node[2].core_layer 	repo_load[2] 	83571
scalar abilene_cost_network.node[2].core_layer 	data[2] 	57324
scalar abilene_cost_network.node[2].content_store 	p_hit[2] 	0.044533808939313
scalar abilene_cost_network.node[2].content_store 	hits[2] 	6567
scalar abilene_cost_network.node[2].content_store 	misses[2] 	140894
scalar abilene_cost_network.node[2].content_store 	decision_yes[2] 	1350
scalar abilene_cost_network.node[2].content_store 	decision_no[2] 	139545
scalar abilene_cost_network.node[2].content_store 	decision_ratio[2] 	0.0095816033216225
scalar abilene_cost_network.node[3].core_layer 	interests[3] 	123304
scalar abilene_cost_network.node[3].core_layer 	data[3] 	116586
scalar abilene_cost_network.node[3].content_store 	p_hit[3] 	0.054491338480503
scalar abilene_cost_network.node[3].content_store 	hits[3] 	6719
scalar abilene_cost_network.node[3].content_store 	misses[3] 	116585
scalar abilene_cost_network.node[3].content_store 	decision_yes[3] 	1134
scalar abilene_cost_network.node[3].content_store 	decision_no[3] 	115452
scalar abilene_cost_network.node[3].content_store 	decision_ratio[3] 	0.0097267253358036
scalar abilene_cost_network.node[4].core_layer 	interests[4] 	0
scalar abilene_cost_network.node[4].core_layer 	data[4] 	0
scalar abilene_cost_network.node[4].content_store 	p_hit[4] 	-nan
scalar abilene_cost_network.node[4].content_store 	hits[4] 	0
scalar abilene_cost_network.node[4].content_store 	misses[4] 	0
scalar abilene_cost_network.node[4].content_store 	decision_yes[4] 	0
scalar abilene_cost_network.node[4].content_store 	decision_no[4] 	0
scalar abilene_cost_network.node[4].content_store 	decision_ratio[4] 	0
scalar abilene_cost_network.node[5].core_layer 	interests[5] 	0
scalar abilene_cost_network.node[5].core_layer 	data[5] 	0
scalar abilene_cost_network.node[5].content_store 	p_hit[5] 	-nan
scalar abilene_cost_network.node[5].content_store 	hits[5] 	0
scalar abilene_cost_network.node[5].content_store 	misses[5] 	0
scalar abilene_cost_network.node[5].content_store 	decision_yes[5] 	0
scalar abilene_cost_network.node[5].content_store 	decision_no[5] 	0
scalar abilene_cost_network.node[5].content_store 	decision_ratio[5] 	0
scalar abilene_cost_network.node[6].core_layer 	interests[6] 	185800
scalar abilene_cost_network.node[6].core_layer 	data[6] 	108457
scalar abilene_cost_network.node[6].content_store 	p_hit[6] 	0.41615177610334
scalar abilene_cost_network.node[6].content_store 	hits[6] 	77321
scalar abilene_cost_network.node[6].content_store 	misses[6] 	108479
scalar abilene_cost_network.node[6].content_store 	decision_yes[6] 	1066
scalar abilene_cost_network.node[6].content_store 	decision_no[6] 	107391
scalar abilene_cost_network.node[6].content_store 	decision_ratio[6] 	0.0098287800695206
scalar abilene_cost_network.node[7].core_layer 	interests[7] 	321693
scalar abilene_cost_network.node[7].core_layer 	repo_load[7] 	106236
scalar abilene_cost_network.node[7].core_layer 	data[7] 	142415
scalar abilene_cost_network.node[7].content_store 	p_hit[7] 	0.22697727336311
scalar abilene_cost_network.node[7].content_store 	hits[7] 	73017
scalar abilene_cost_network.node[7].content_store 	misses[7] 	248676
scalar abilene_cost_network.node[7].content_store 	decision_yes[7] 	2488
scalar abilene_cost_network.node[7].content_store 	decision_no[7] 	246163
scalar abilene_cost_network.node[7].content_store 	decision_ratio[7] 	0.010005992334638
scalar abilene_cost_network.node[8].core_layer 	interests[8] 	49843
scalar abilene_cost_network.node[8].core_layer 	data[8] 	35346
scalar abilene_cost_network.node[8].content_store 	p_hit[8] 	0.29085327929699
scalar abilene_cost_network.node[8].content_store 	hits[8] 	14497
scalar abilene_cost_network.node[8].content_store 	misses[8] 	35346
scalar abilene_cost_network.node[8].content_store 	decision_yes[8] 	375
scalar abilene_cost_network.node[8].content_store 	decision_no[8] 	34971
scalar abilene_cost_network.node[8].content_store 	decision_ratio[8] 	0.010609404175861
scalar abilene_cost_network.node[9].core_layer 	interests[9] 	47530
scalar abilene_cost_network.node[9].core_layer 	data[9] 	37668
scalar abilene_cost_network.node[9].content_store 	p_hit[9] 	0.20746896696823
scalar abilene_cost_network.node[9].content_store 	hits[9] 	9861
scalar abilene_cost_network.node[9].content_store 	misses[9] 	37669
scalar abilene_cost_network.node[9].content_store 	decision_yes[9] 	381
scalar abilene_cost_network.node[9].content_store 	decision_no[9] 	37287
scalar abilene_cost_network.node[9].content_store 	decision_ratio[9] 	0.010114686205798
scalar abilene_cost_network.node[10].core_layer 	interests[10] 	180824
scalar abilene_cost_network.node[10].core_layer 	data[10] 	109224
scalar abilene_cost_network.node[10].content_store 	p_hit[10] 	0.39584347210547
scalar abilene_cost_network.node[10].content_store 	hits[10] 	71578
scalar abilene_cost_network.node[10].content_store 	misses[10] 	109246
scalar abilene_cost_network.node[10].content_store 	decision_yes[10] 	1051
scalar abilene_cost_network.node[10].content_store 	decision_no[10] 	108173
scalar abilene_cost_network.node[10].content_store 	decision_ratio[10] 	0.0096224273053541
scalar abilene_cost_network.client[6] 	hdistance[6] 	2.1241307061341
scalar abilene_cost_network.client[6] 	downloads[6] 	179456
scalar abilene_cost_network.client[6] 	avg_time[6] 	0.009673266305
scalar abilene_cost_network.client[6] 	interests_sent[6] 	179478
scalar abilene_cost_network.client[7] 	hdistance[7] 	1.5684355609186
scalar abilene_cost_network.client[7] 	downloads[7] 	180659
scalar abilene_cost_network.client[7] 	avg_time[7] 	0.006337653343
scalar abilene_cost_network.client[7] 	interests_sent[7] 	180670
scalar abilene_cost_network.client[10] 	hdistance[10] 	1.6503449156164
scalar abilene_cost_network.client[10] 	downloads[10] 	180189
scalar abilene_cost_network.client[10] 	avg_time[10] 	0.009430027499
scalar abilene_cost_network.client[10] 	interests_sent[10] 	180211
