version 2
run General-23-20140902-16:03:38-27579
attr D fix0.01
attr F nrr
attr R lru
attr a 1
attr configname General
attr csize 1e3
attr ctlg 1e5
attr datetime 20140902-16:03:38
attr experiment General
attr inifile omnetpp.ini
attr iterationvars "$net=abilene_cost, $rep=16, $priceratiovalue=10, $weights=0.333_0.333_0.334, $lambda=100, $a=1, $ctlg=1e5, $F=nrr, $ttl=10, $D=fix0.01, $xi=1, $R=lru, $csize=1e3, $pricebits=0, $window=60, $variance=0.05, $mytime=1800"
attr iterationvars2 "$net=abilene_cost, $rep=16, $priceratiovalue=10, $weights=0.333_0.333_0.334, $lambda=100, $a=1, $ctlg=1e5, $F=nrr, $ttl=10, $D=fix0.01, $xi=1, $R=lru, $csize=1e3, $pricebits=0, $window=60, $variance=0.05, $mytime=1800, $repetition=0"
attr lambda 100
attr measurement "$net=abilene_cost, $rep=16, $priceratiovalue=10, $weights=0.333_0.333_0.334, $lambda=100, $a=1, $ctlg=1e5, $F=nrr, $ttl=10, $D=fix0.01, $xi=1, $R=lru, $csize=1e3, $pricebits=0, $window=60, $variance=0.05, $mytime=1800"
attr mytime 1800
attr net abilene_cost
attr network networks.${net=abilene_cost}_network
attr pricebits 0
attr priceratiovalue 10
attr processid 27579
attr rep 16
attr repetition 0
attr replication #0
attr resultdir results
attr runnumber 23
attr seedset 16
attr ttl 10
attr variance 0.05
attr weights 0.333_0.333_0.334
attr window 60
attr xi 1

scalar . 	a 	1
scalar . 	csize 	1e3
scalar . 	ctlg 	1e5
scalar . 	lambda 	100
scalar . 	mytime 	1800
scalar . 	pricebits 	0
scalar . 	priceratiovalue 	10
scalar . 	rep 	16
scalar . 	ttl 	10
scalar . 	variance 	0.05
scalar . 	window 	60
scalar . 	xi 	1
scalar abilene_cost_network.content_distribution 	repo-0 	10
scalar abilene_cost_network.content_distribution 	repo-1 	8
scalar abilene_cost_network.content_distribution 	repo-2 	5
scalar abilene_cost_network.content_distribution 	client-0 	2
scalar abilene_cost_network.content_distribution 	client-1 	5
scalar abilene_cost_network.content_distribution 	client-2 	1
scalar abilene_cost_network.content_distribution 	repo-0_card 	33300
scalar abilene_cost_network.content_distribution 	repo-0_price 	10
scalar abilene_cost_network.content_distribution 	repo-1_card 	33210
scalar abilene_cost_network.content_distribution 	repo-1_price 	0
scalar abilene_cost_network.content_distribution 	repo-2_card 	33490
scalar abilene_cost_network.content_distribution 	repo-2_price 	1
scalar abilene_cost_network.statistics 	repo_popularity[0] 	0.32240545810189
scalar abilene_cost_network.statistics 	repo_popularity[1] 	0.25747982251511
scalar abilene_cost_network.statistics 	repo_popularity[2] 	0.42011471938301
scalar abilene_cost_network.statistics 	stabilization_time 	36060
scalar abilene_cost_network.statistics 	p_hit 	0.21720705846629
scalar abilene_cost_network.statistics 	interests 	114364.27272727
scalar abilene_cost_network.statistics 	data 	65326.545454545
scalar abilene_cost_network.statistics 	hdistance 	1.8260507730415
scalar abilene_cost_network.statistics 	avg_time 	0.007879658346
scalar abilene_cost_network.statistics 	downloads 	539342
scalar abilene_cost_network.statistics 	total_cost 	963018
scalar abilene_cost_network.statistics 	total_replicas 	100000
scalar abilene_cost_network.statistics 	inner_hit 	0.50668777881196
scalar abilene_cost_network.statistics 	interests_sent 	539416
scalar abilene_cost_network.node[0].core_layer 	interests[0] 	0
scalar abilene_cost_network.node[0].core_layer 	data[0] 	0
scalar abilene_cost_network.node[0].core_layer 	repo_int[0] 	266064
scalar abilene_cost_network.node[0].content_store 	p_hit[0] 	-nan
scalar abilene_cost_network.node[0].content_store 	hits[0] 	0
scalar abilene_cost_network.node[0].content_store 	misses[0] 	0
scalar abilene_cost_network.node[0].content_store 	decision_yes[0] 	0
scalar abilene_cost_network.node[0].content_store 	decision_no[0] 	0
scalar abilene_cost_network.node[0].content_store 	decision_ratio[0] 	0
scalar abilene_cost_network.node[1].core_layer 	interests[1] 	248839
scalar abilene_cost_network.node[1].core_layer 	data[1] 	171798
scalar abilene_cost_network.node[1].content_store 	p_hit[1] 	0.30947319351066
scalar abilene_cost_network.node[1].content_store 	hits[1] 	77009
scalar abilene_cost_network.node[1].content_store 	misses[1] 	171830
scalar abilene_cost_network.node[1].content_store 	decision_yes[1] 	1799
scalar abilene_cost_network.node[1].content_store 	decision_no[1] 	169999
scalar abilene_cost_network.node[1].content_store 	decision_ratio[1] 	0.010471600367874
scalar abilene_cost_network.node[2].core_layer 	interests[2] 	291051
scalar abilene_cost_network.node[2].core_layer 	data[2] 	215319
scalar abilene_cost_network.node[2].content_store 	p_hit[2] 	0.26001628580558
scalar abilene_cost_network.node[2].content_store 	hits[2] 	75678
scalar abilene_cost_network.node[2].content_store 	misses[2] 	215373
scalar abilene_cost_network.node[2].content_store 	decision_yes[2] 	2209
scalar abilene_cost_network.node[2].content_store 	decision_no[2] 	213109
scalar abilene_cost_network.node[2].content_store 	decision_ratio[2] 	0.010259244466324
scalar abilene_cost_network.node[3].core_layer 	interests[3] 	118574
scalar abilene_cost_network.node[3].core_layer 	data[3] 	103780
scalar abilene_cost_network.node[3].content_store 	p_hit[3] 	0.12477440248284
scalar abilene_cost_network.node[3].content_store 	hits[3] 	14795
scalar abilene_cost_network.node[3].content_store 	misses[3] 	103779
scalar abilene_cost_network.node[3].content_store 	decision_yes[3] 	1066
scalar abilene_cost_network.node[3].content_store 	decision_no[3] 	102714
scalar abilene_cost_network.node[3].content_store 	decision_ratio[3] 	0.010271728656774
scalar abilene_cost_network.node[4].core_layer 	interests[4] 	107782
scalar abilene_cost_network.node[4].core_layer 	data[4] 	97553
scalar abilene_cost_network.node[4].content_store 	p_hit[4] 	0.094913807500325
scalar abilene_cost_network.node[4].content_store 	hits[4] 	10230
scalar abilene_cost_network.node[4].content_store 	misses[4] 	97552
scalar abilene_cost_network.node[4].content_store 	decision_yes[4] 	949
scalar abilene_cost_network.node[4].content_store 	decision_no[4] 	96604
scalar abilene_cost_network.node[4].content_store 	decision_ratio[4] 	0.0097280452677006
scalar abilene_cost_network.node[5].core_layer 	interests[5] 	242237
scalar abilene_cost_network.node[5].core_layer 	repo_load[5] 	98658
scalar abilene_cost_network.node[5].core_layer 	data[5] 	74034
scalar abilene_cost_network.node[5].content_store 	p_hit[5] 	0.28701643431846
scalar abilene_cost_network.node[5].content_store 	hits[5] 	69526
scalar abilene_cost_network.node[5].content_store 	misses[5] 	172711
scalar abilene_cost_network.node[5].content_store 	decision_yes[5] 	1773
scalar abilene_cost_network.node[5].content_store 	decision_no[5] 	170919
scalar abilene_cost_network.node[5].content_store 	decision_ratio[5] 	0.010266833437565
scalar abilene_cost_network.node[6].core_layer 	interests[6] 	33866
scalar abilene_cost_network.node[6].core_layer 	data[6] 	29024
scalar abilene_cost_network.node[6].content_store 	p_hit[6] 	0.14297525541841
scalar abilene_cost_network.node[6].content_store 	hits[6] 	4842
scalar abilene_cost_network.node[6].content_store 	misses[6] 	29024
scalar abilene_cost_network.node[6].content_store 	decision_yes[6] 	288
scalar abilene_cost_network.node[6].content_store 	decision_no[6] 	28736
scalar abilene_cost_network.node[6].content_store 	decision_ratio[6] 	0.009922822491731
scalar abilene_cost_network.node[7].core_layer 	interests[7] 	33075
scalar abilene_cost_network.node[7].core_layer 	data[7] 	27084
scalar abilene_cost_network.node[7].content_store 	p_hit[7] 	0.18113378684807
scalar abilene_cost_network.node[7].content_store 	hits[7] 	5991
scalar abilene_cost_network.node[7].content_store 	misses[7] 	27084
scalar abilene_cost_network.node[7].content_store 	decision_yes[7] 	267
scalar abilene_cost_network.node[7].content_store 	decision_no[7] 	26817
scalar abilene_cost_network.node[7].content_store 	decision_ratio[7] 	0.0098582188746123
scalar abilene_cost_network.node[8].core_layer 	interests[8] 	89401
scalar abilene_cost_network.node[8].core_layer 	repo_load[8] 	80970
scalar abilene_cost_network.node[8].core_layer 	data[8] 	0
scalar abilene_cost_network.node[8].content_store 	p_hit[8] 	0.094305432825136
scalar abilene_cost_network.node[8].content_store 	hits[8] 	8431
scalar abilene_cost_network.node[8].content_store 	misses[8] 	80970
scalar abilene_cost_network.node[8].content_store 	decision_yes[8] 	812
scalar abilene_cost_network.node[8].content_store 	decision_no[8] 	80158
scalar abilene_cost_network.node[8].content_store 	decision_ratio[8] 	0.010028405582314
scalar abilene_cost_network.node[9].core_layer 	interests[9] 	0
scalar abilene_cost_network.node[9].core_layer 	data[9] 	0
scalar abilene_cost_network.node[9].content_store 	p_hit[9] 	-nan
scalar abilene_cost_network.node[9].content_store 	hits[9] 	0
scalar abilene_cost_network.node[9].content_store 	misses[9] 	0
scalar abilene_cost_network.node[9].content_store 	decision_yes[9] 	0
scalar abilene_cost_network.node[9].content_store 	decision_no[9] 	0
scalar abilene_cost_network.node[9].content_store 	decision_ratio[9] 	0
scalar abilene_cost_network.node[10].core_layer 	interests[10] 	93182
scalar abilene_cost_network.node[10].core_layer 	repo_load[10] 	86436
scalar abilene_cost_network.node[10].core_layer 	data[10] 	0
scalar abilene_cost_network.node[10].content_store 	p_hit[10] 	0.072395956300573
scalar abilene_cost_network.node[10].content_store 	hits[10] 	6746
scalar abilene_cost_network.node[10].content_store 	misses[10] 	86436
scalar abilene_cost_network.node[10].content_store 	decision_yes[10] 	946
scalar abilene_cost_network.node[10].content_store 	decision_no[10] 	85490
scalar abilene_cost_network.node[10].content_store 	decision_ratio[10] 	0.010944513859966
scalar abilene_cost_network.client[1] 	hdistance[1] 	1.870414408795
scalar abilene_cost_network.client[1] 	downloads[1] 	179557
scalar abilene_cost_network.client[1] 	avg_time[1] 	0.008424941992
scalar abilene_cost_network.client[1] 	interests_sent[1] 	179586
scalar abilene_cost_network.client[2] 	hdistance[2] 	1.6556846040356
scalar abilene_cost_network.client[2] 	downloads[2] 	180294
scalar abilene_cost_network.client[2] 	avg_time[2] 	0.007080222451
scalar abilene_cost_network.client[2] 	interests_sent[2] 	180320
scalar abilene_cost_network.client[5] 	hdistance[5] 	1.9520533062939
scalar abilene_cost_network.client[5] 	downloads[5] 	179491
scalar abilene_cost_network.client[5] 	avg_time[5] 	0.008133810596
scalar abilene_cost_network.client[5] 	interests_sent[5] 	179510
