version 2
run General-19-20140902-15:52:54-27571
attr D fix0.01
attr F nrr
attr R lru
attr a 1
attr configname General
attr csize 1e3
attr ctlg 1e5
attr datetime 20140902-15:52:54
attr experiment General
attr inifile omnetpp.ini
attr iterationvars "$net=abilene_cost, $rep=15, $priceratiovalue=10, $weights=0.333_0.333_0.334, $lambda=100, $a=1, $ctlg=1e5, $F=nrr, $ttl=10, $D=fix0.01, $xi=1, $R=lru, $csize=1e3, $pricebits=0, $window=60, $variance=0.05, $mytime=1800"
attr iterationvars2 "$net=abilene_cost, $rep=15, $priceratiovalue=10, $weights=0.333_0.333_0.334, $lambda=100, $a=1, $ctlg=1e5, $F=nrr, $ttl=10, $D=fix0.01, $xi=1, $R=lru, $csize=1e3, $pricebits=0, $window=60, $variance=0.05, $mytime=1800, $repetition=0"
attr lambda 100
attr measurement "$net=abilene_cost, $rep=15, $priceratiovalue=10, $weights=0.333_0.333_0.334, $lambda=100, $a=1, $ctlg=1e5, $F=nrr, $ttl=10, $D=fix0.01, $xi=1, $R=lru, $csize=1e3, $pricebits=0, $window=60, $variance=0.05, $mytime=1800"
attr mytime 1800
attr net abilene_cost
attr network networks.${net=abilene_cost}_network
attr pricebits 0
attr priceratiovalue 10
attr processid 27571
attr rep 15
attr repetition 0
attr replication #0
attr resultdir results
attr runnumber 19
attr seedset 15
attr ttl 10
attr variance 0.05
attr weights 0.333_0.333_0.334
attr window 60
attr xi 1

scalar . 	a 	1
scalar . 	csize 	1e3
scalar . 	ctlg 	1e5
scalar . 	lambda 	100
scalar . 	mytime 	1800
scalar . 	pricebits 	0
scalar . 	priceratiovalue 	10
scalar . 	rep 	15
scalar . 	ttl 	10
scalar . 	variance 	0.05
scalar . 	window 	60
scalar . 	xi 	1
scalar abilene_cost_network.content_distribution 	repo-0 	5
scalar abilene_cost_network.content_distribution 	repo-1 	8
scalar abilene_cost_network.content_distribution 	repo-2 	4
scalar abilene_cost_network.content_distribution 	client-0 	3
scalar abilene_cost_network.content_distribution 	client-1 	2
scalar abilene_cost_network.content_distribution 	client-2 	0
scalar abilene_cost_network.content_distribution 	repo-0_card 	33352
scalar abilene_cost_network.content_distribution 	repo-0_price 	1
scalar abilene_cost_network.content_distribution 	repo-1_card 	33288
scalar abilene_cost_network.content_distribution 	repo-1_price 	0
scalar abilene_cost_network.content_distribution 	repo-2_card 	33360
scalar abilene_cost_network.content_distribution 	repo-2_price 	10
scalar abilene_cost_network.statistics 	repo_popularity[0] 	0.43052598680441
scalar abilene_cost_network.statistics 	repo_popularity[1] 	0.30869775185449
scalar abilene_cost_network.statistics 	repo_popularity[2] 	0.26077626134111
scalar abilene_cost_network.statistics 	stabilization_time 	36060
scalar abilene_cost_network.statistics 	p_hit 	0.20736948063988
scalar abilene_cost_network.statistics 	interests 	121108.81818182
scalar abilene_cost_network.statistics 	data 	72067.636363636
scalar abilene_cost_network.statistics 	hdistance 	1.9583821482294
scalar abilene_cost_network.statistics 	avg_time 	0.00840944291
scalar abilene_cost_network.statistics 	downloads 	539371
scalar abilene_cost_network.statistics 	total_cost 	997483
scalar abilene_cost_network.statistics 	total_replicas 	100000
scalar abilene_cost_network.statistics 	inner_hit 	0.51223740245582
scalar abilene_cost_network.statistics 	interests_sent 	539446
scalar abilene_cost_network.node[0].core_layer 	interests[0] 	182677
scalar abilene_cost_network.node[0].core_layer 	data[0] 	109036
scalar abilene_cost_network.node[0].core_layer 	repo_int[0] 	263085
scalar abilene_cost_network.node[0].content_store 	p_hit[0] 	0.40291881298686
scalar abilene_cost_network.node[0].content_store 	hits[0] 	73604
scalar abilene_cost_network.node[0].content_store 	misses[0] 	109073
scalar abilene_cost_network.node[0].content_store 	decision_yes[0] 	1039
scalar abilene_cost_network.node[0].content_store 	decision_no[0] 	107997
scalar abilene_cost_network.node[0].content_store 	decision_ratio[0] 	0.009528962911332
scalar abilene_cost_network.node[1].core_layer 	interests[1] 	126587
scalar abilene_cost_network.node[1].core_layer 	data[1] 	103404
scalar abilene_cost_network.node[1].content_store 	p_hit[1] 	0.18311516980417
scalar abilene_cost_network.node[1].content_store 	hits[1] 	23180
scalar abilene_cost_network.node[1].content_store 	misses[1] 	103407
scalar abilene_cost_network.node[1].content_store 	decision_yes[1] 	1108
scalar abilene_cost_network.node[1].content_store 	decision_no[1] 	102296
scalar abilene_cost_network.node[1].content_store 	decision_ratio[1] 	0.010715252794863
scalar abilene_cost_network.node[2].core_layer 	interests[2] 	328358
scalar abilene_cost_network.node[2].core_layer 	data[2] 	250236
scalar abilene_cost_network.node[2].content_store 	p_hit[2] 	0.23776183312117
scalar abilene_cost_network.node[2].content_store 	hits[2] 	78071
scalar abilene_cost_network.node[2].content_store 	misses[2] 	250287
scalar abilene_cost_network.node[2].content_store 	decision_yes[2] 	2526
scalar abilene_cost_network.node[2].content_store 	decision_no[2] 	247710
scalar abilene_cost_network.node[2].content_store 	decision_ratio[2] 	0.010094470819546
scalar abilene_cost_network.node[3].core_layer 	interests[3] 	316058
scalar abilene_cost_network.node[3].core_layer 	data[3] 	239202
scalar abilene_cost_network.node[3].content_store 	p_hit[3] 	0.2431041138019
scalar abilene_cost_network.node[3].content_store 	hits[3] 	76835
scalar abilene_cost_network.node[3].content_store 	misses[3] 	239223
scalar abilene_cost_network.node[3].content_store 	decision_yes[3] 	2436
scalar abilene_cost_network.node[3].content_store 	decision_no[3] 	236766
scalar abilene_cost_network.node[3].content_store 	decision_ratio[3] 	0.010183861338952
scalar abilene_cost_network.node[4].core_layer 	interests[4] 	191106
scalar abilene_cost_network.node[4].core_layer 	repo_load[4] 	91289
scalar abilene_cost_network.node[4].core_layer 	data[4] 	90866
scalar abilene_cost_network.node[4].content_store 	p_hit[4] 	0.046843113246052
scalar abilene_cost_network.node[4].content_store 	hits[4] 	8952
scalar abilene_cost_network.node[4].content_store 	misses[4] 	182154
scalar abilene_cost_network.node[4].content_store 	decision_yes[4] 	1795
scalar abilene_cost_network.node[4].content_store 	decision_no[4] 	180360
scalar abilene_cost_network.node[4].content_store 	decision_ratio[4] 	0.0098542450111169
scalar abilene_cost_network.node[5].core_layer 	interests[5] 	90866
scalar abilene_cost_network.node[5].core_layer 	repo_load[5] 	84593
scalar abilene_cost_network.node[5].core_layer 	data[5] 	0
scalar abilene_cost_network.node[5].content_store 	p_hit[5] 	0.06903572293267
scalar abilene_cost_network.node[5].content_store 	hits[5] 	6273
scalar abilene_cost_network.node[5].content_store 	misses[5] 	84593
scalar abilene_cost_network.node[5].content_store 	decision_yes[5] 	895
scalar abilene_cost_network.node[5].content_store 	decision_no[5] 	83698
scalar abilene_cost_network.node[5].content_store 	decision_ratio[5] 	0.010580071637133
scalar abilene_cost_network.node[6].core_layer 	interests[6] 	0
scalar abilene_cost_network.node[6].core_layer 	data[6] 	0
scalar abilene_cost_network.node[6].content_store 	p_hit[6] 	-nan
scalar abilene_cost_network.node[6].content_store 	hits[6] 	0
scalar abilene_cost_network.node[6].content_store 	misses[6] 	0
scalar abilene_cost_network.node[6].content_store 	decision_yes[6] 	0
scalar abilene_cost_network.node[6].content_store 	decision_no[6] 	0
scalar abilene_cost_network.node[6].content_store 	decision_ratio[6] 	0
scalar abilene_cost_network.node[7].core_layer 	interests[7] 	0
scalar abilene_cost_network.node[7].core_layer 	data[7] 	0
scalar abilene_cost_network.node[7].content_store 	p_hit[7] 	-nan
scalar abilene_cost_network.node[7].content_store 	hits[7] 	0
scalar abilene_cost_network.node[7].content_store 	misses[7] 	0
scalar abilene_cost_network.node[7].content_store 	decision_yes[7] 	0
scalar abilene_cost_network.node[7].content_store 	decision_no[7] 	0
scalar abilene_cost_network.node[7].content_store 	decision_ratio[7] 	0
scalar abilene_cost_network.node[8].core_layer 	interests[8] 	96545
scalar abilene_cost_network.node[8].core_layer 	repo_load[8] 	87203
scalar abilene_cost_network.node[8].core_layer 	data[8] 	0
scalar abilene_cost_network.node[8].content_store 	p_hit[8] 	0.096763167434875
scalar abilene_cost_network.node[8].content_store 	hits[8] 	9342
scalar abilene_cost_network.node[8].content_store 	misses[8] 	87203
scalar abilene_cost_network.node[8].content_store 	decision_yes[8] 	864
scalar abilene_cost_network.node[8].content_store 	decision_no[8] 	86339
scalar abilene_cost_network.node[8].content_store 	decision_ratio[8] 	0.0099079160120638
scalar abilene_cost_network.node[9].core_layer 	interests[9] 	0
scalar abilene_cost_network.node[9].core_layer 	data[9] 	0
scalar abilene_cost_network.node[9].content_store 	p_hit[9] 	-nan
scalar abilene_cost_network.node[9].content_store 	hits[9] 	0
scalar abilene_cost_network.node[9].content_store 	misses[9] 	0
scalar abilene_cost_network.node[9].content_store 	decision_yes[9] 	0
scalar abilene_cost_network.node[9].content_store 	decision_no[9] 	0
scalar abilene_cost_network.node[9].content_store 	decision_ratio[9] 	0
scalar abilene_cost_network.node[10].core_layer 	interests[10] 	0
scalar abilene_cost_network.node[10].core_layer 	data[10] 	0
scalar abilene_cost_network.node[10].content_store 	p_hit[10] 	-nan
scalar abilene_cost_network.node[10].content_store 	hits[10] 	0
scalar abilene_cost_network.node[10].content_store 	misses[10] 	0
scalar abilene_cost_network.node[10].content_store 	decision_yes[10] 	0
scalar abilene_cost_network.node[10].content_store 	decision_no[10] 	0
scalar abilene_cost_network.node[10].content_store 	decision_ratio[10] 	0
scalar abilene_cost_network.client[0] 	hdistance[0] 	2.7110515374283
scalar abilene_cost_network.client[0] 	downloads[0] 	179423
scalar abilene_cost_network.client[0] 	avg_time[0] 	0.014897483759
scalar abilene_cost_network.client[0] 	interests_sent[0] 	179460
scalar abilene_cost_network.client[2] 	hdistance[2] 	1.6490419327964
scalar abilene_cost_network.client[2] 	downloads[2] 	180050
scalar abilene_cost_network.client[2] 	avg_time[2] 	0.005522500714
scalar abilene_cost_network.client[2] 	interests_sent[2] 	180073
scalar abilene_cost_network.client[3] 	hdistance[3] 	1.5150529744633
scalar abilene_cost_network.client[3] 	downloads[3] 	179898
scalar abilene_cost_network.client[3] 	avg_time[3] 	0.004808344259
scalar abilene_cost_network.client[3] 	interests_sent[3] 	179913
