version 2
run General-11-20140902-16:29:38-17296
attr D fix0.01
attr F nrr
attr R lru
attr a 1
attr configname General
attr csize 1e3
attr ctlg 1e5
attr datetime 20140902-16:29:38
attr experiment General
attr inifile omnetpp.ini
attr iterationvars "$net=abilene_cost, $rep=8, $priceratiovalue=10, $weights=0.333_0.333_0.334, $lambda=100, $a=1, $ctlg=1e5, $F=nrr, $ttl=10, $D=fix0.01, $xi=1, $R=lru, $csize=1e3, $pricebits=0, $window=60, $variance=0.05, $mytime=1800"
attr iterationvars2 "$net=abilene_cost, $rep=8, $priceratiovalue=10, $weights=0.333_0.333_0.334, $lambda=100, $a=1, $ctlg=1e5, $F=nrr, $ttl=10, $D=fix0.01, $xi=1, $R=lru, $csize=1e3, $pricebits=0, $window=60, $variance=0.05, $mytime=1800, $repetition=0"
attr lambda 100
attr measurement "$net=abilene_cost, $rep=8, $priceratiovalue=10, $weights=0.333_0.333_0.334, $lambda=100, $a=1, $ctlg=1e5, $F=nrr, $ttl=10, $D=fix0.01, $xi=1, $R=lru, $csize=1e3, $pricebits=0, $window=60, $variance=0.05, $mytime=1800"
attr mytime 1800
attr net abilene_cost
attr network networks.${net=abilene_cost}_network
attr pricebits 0
attr priceratiovalue 10
attr processid 17296
attr rep 8
attr repetition 0
attr replication #0
attr resultdir results
attr runnumber 11
attr seedset 8
attr ttl 10
attr variance 0.05
attr weights 0.333_0.333_0.334
attr window 60
attr xi 1

scalar . 	a 	1
scalar . 	csize 	1e3
scalar . 	ctlg 	1e5
scalar . 	lambda 	100
scalar . 	mytime 	1800
scalar . 	pricebits 	0
scalar . 	priceratiovalue 	10
scalar . 	rep 	8
scalar . 	ttl 	10
scalar . 	variance 	0.05
scalar . 	window 	60
scalar . 	xi 	1
scalar abilene_cost_network.content_distribution 	repo-0 	4
scalar abilene_cost_network.content_distribution 	repo-1 	10
scalar abilene_cost_network.content_distribution 	repo-2 	6
scalar abilene_cost_network.content_distribution 	client-0 	2
scalar abilene_cost_network.content_distribution 	client-1 	8
scalar abilene_cost_network.content_distribution 	client-2 	4
scalar abilene_cost_network.content_distribution 	repo-0_card 	33478
scalar abilene_cost_network.content_distribution 	repo-0_price 	10
scalar abilene_cost_network.content_distribution 	repo-1_card 	33258
scalar abilene_cost_network.content_distribution 	repo-1_price 	0
scalar abilene_cost_network.content_distribution 	repo-2_card 	33264
scalar abilene_cost_network.content_distribution 	repo-2_price 	1
scalar abilene_cost_network.statistics 	repo_popularity[0] 	0.31428049746668
scalar abilene_cost_network.statistics 	repo_popularity[1] 	0.42959256184477
scalar abilene_cost_network.statistics 	repo_popularity[2] 	0.25612694068856
scalar abilene_cost_network.statistics 	stabilization_time 	36060
scalar abilene_cost_network.statistics 	p_hit 	0.23193518355847
scalar abilene_cost_network.statistics 	interests 	110735.09090909
scalar abilene_cost_network.statistics 	data 	61764
scalar abilene_cost_network.statistics 	hdistance 	1.7370778135388
scalar abilene_cost_network.statistics 	avg_time 	0.007190902776
scalar abilene_cost_network.statistics 	downloads 	538629
scalar abilene_cost_network.statistics 	total_cost 	1081352
scalar abilene_cost_network.statistics 	total_replicas 	100000
scalar abilene_cost_network.statistics 	inner_hit 	0.52455771969203
scalar abilene_cost_network.statistics 	interests_sent 	538681
scalar abilene_cost_network.node[0].core_layer 	interests[0] 	0
scalar abilene_cost_network.node[0].core_layer 	data[0] 	0
scalar abilene_cost_network.node[0].core_layer 	repo_int[0] 	256087
scalar abilene_cost_network.node[0].content_store 	p_hit[0] 	-nan
scalar abilene_cost_network.node[0].content_store 	hits[0] 	0
scalar abilene_cost_network.node[0].content_store 	misses[0] 	0
scalar abilene_cost_network.node[0].content_store 	decision_yes[0] 	0
scalar abilene_cost_network.node[0].content_store 	decision_no[0] 	0
scalar abilene_cost_network.node[0].content_store 	decision_ratio[0] 	0
scalar abilene_cost_network.node[1].core_layer 	interests[1] 	61781
scalar abilene_cost_network.node[1].core_layer 	data[1] 	54626
scalar abilene_cost_network.node[1].content_store 	p_hit[1] 	0.11581230475389
scalar abilene_cost_network.node[1].content_store 	hits[1] 	7155
scalar abilene_cost_network.node[1].content_store 	misses[1] 	54626
scalar abilene_cost_network.node[1].content_store 	decision_yes[1] 	550
scalar abilene_cost_network.node[1].content_store 	decision_no[1] 	54076
scalar abilene_cost_network.node[1].content_store 	decision_ratio[1] 	0.010068465565848
scalar abilene_cost_network.node[2].core_layer 	interests[2] 	262758
scalar abilene_cost_network.node[2].core_layer 	data[2] 	184884
scalar abilene_cost_network.node[2].content_store 	p_hit[2] 	0.2961850828519
scalar abilene_cost_network.node[2].content_store 	hits[2] 	77825
scalar abilene_cost_network.node[2].content_store 	misses[2] 	184933
scalar abilene_cost_network.node[2].content_store 	decision_yes[2] 	1828
scalar abilene_cost_network.node[2].content_store 	decision_no[2] 	183056
scalar abilene_cost_network.node[2].content_store 	decision_ratio[2] 	0.009887280673287
scalar abilene_cost_network.node[3].core_layer 	interests[3] 	155153
scalar abilene_cost_network.node[3].core_layer 	data[3] 	138257
scalar abilene_cost_network.node[3].content_store 	p_hit[3] 	0.10889251255213
scalar abilene_cost_network.node[3].content_store 	hits[3] 	16895
scalar abilene_cost_network.node[3].content_store 	misses[3] 	138258
scalar abilene_cost_network.node[3].content_store 	decision_yes[3] 	1439
scalar abilene_cost_network.node[3].content_store 	decision_no[3] 	136818
scalar abilene_cost_network.node[3].content_store 	decision_ratio[3] 	0.010408152932582
scalar abilene_cost_network.node[4].core_layer 	interests[4] 	248852
scalar abilene_cost_network.node[4].core_layer 	repo_load[4] 	100344
scalar abilene_cost_network.node[4].core_layer 	data[4] 	77517
scalar abilene_cost_network.node[4].content_store 	p_hit[4] 	0.28524183048559
scalar abilene_cost_network.node[4].content_store 	hits[4] 	70983
scalar abilene_cost_network.node[4].content_store 	misses[4] 	177869
scalar abilene_cost_network.node[4].content_store 	decision_yes[4] 	1742
scalar abilene_cost_network.node[4].content_store 	decision_no[4] 	176119
scalar abilene_cost_network.node[4].content_store 	decision_ratio[4] 	0.0097941651064595
scalar abilene_cost_network.node[5].core_layer 	interests[5] 	31740
scalar abilene_cost_network.node[5].core_layer 	data[5] 	26794
scalar abilene_cost_network.node[5].content_store 	p_hit[5] 	0.15582860743541
scalar abilene_cost_network.node[5].content_store 	hits[5] 	4946
scalar abilene_cost_network.node[5].content_store 	misses[5] 	26794
scalar abilene_cost_network.node[5].content_store 	decision_yes[5] 	287
scalar abilene_cost_network.node[5].content_store 	decision_no[5] 	26507
scalar abilene_cost_network.node[5].content_store 	decision_ratio[5] 	0.01071135328805
scalar abilene_cost_network.node[6].core_layer 	interests[6] 	83042
scalar abilene_cost_network.node[6].core_layer 	repo_load[6] 	77912
scalar abilene_cost_network.node[6].core_layer 	data[6] 	0
scalar abilene_cost_network.node[6].content_store 	p_hit[6] 	0.061775968786879
scalar abilene_cost_network.node[6].content_store 	hits[6] 	5130
scalar abilene_cost_network.node[6].content_store 	misses[6] 	77912
scalar abilene_cost_network.node[6].content_store 	decision_yes[6] 	803
scalar abilene_cost_network.node[6].content_store 	decision_no[6] 	77109
scalar abilene_cost_network.node[6].content_store 	decision_ratio[6] 	0.01030649964062
scalar abilene_cost_network.node[7].core_layer 	interests[7] 	65480
scalar abilene_cost_network.node[7].core_layer 	data[7] 	56248
scalar abilene_cost_network.node[7].content_store 	p_hit[7] 	0.14098961514966
scalar abilene_cost_network.node[7].content_store 	hits[7] 	9232
scalar abilene_cost_network.node[7].content_store 	misses[7] 	56248
scalar abilene_cost_network.node[7].content_store 	decision_yes[7] 	531
scalar abilene_cost_network.node[7].content_store 	decision_no[7] 	55717
scalar abilene_cost_network.node[7].content_store 	decision_ratio[7] 	0.0094403356563789
scalar abilene_cost_network.node[8].core_layer 	interests[8] 	193106
scalar abilene_cost_network.node[8].core_layer 	data[8] 	113668
scalar abilene_cost_network.node[8].content_store 	p_hit[8] 	0.41126635112322
scalar abilene_cost_network.node[8].content_store 	hits[8] 	79418
scalar abilene_cost_network.node[8].content_store 	misses[8] 	113688
scalar abilene_cost_network.node[8].content_store 	decision_yes[8] 	1099
scalar abilene_cost_network.node[8].content_store 	decision_no[8] 	112569
scalar abilene_cost_network.node[8].content_store 	decision_ratio[8] 	0.0096685082872928
scalar abilene_cost_network.node[9].core_layer 	interests[9] 	34138
scalar abilene_cost_network.node[9].core_layer 	data[9] 	27410
scalar abilene_cost_network.node[9].content_store 	p_hit[9] 	0.1970824301365
scalar abilene_cost_network.node[9].content_store 	hits[9] 	6728
scalar abilene_cost_network.node[9].content_store 	misses[9] 	27410
scalar abilene_cost_network.node[9].content_store 	decision_yes[9] 	250
scalar abilene_cost_network.node[9].content_store 	decision_no[9] 	27160
scalar abilene_cost_network.node[9].content_store 	decision_ratio[9] 	0.0091207588471361
scalar abilene_cost_network.node[10].core_layer 	interests[10] 	82036
scalar abilene_cost_network.node[10].core_layer 	repo_load[10] 	77831
scalar abilene_cost_network.node[10].core_layer 	data[10] 	0
scalar abilene_cost_network.node[10].content_store 	p_hit[10] 	0.051257984299576
scalar abilene_cost_network.node[10].content_store 	hits[10] 	4205
scalar abilene_cost_network.node[10].content_store 	misses[10] 	77831
scalar abilene_cost_network.node[10].content_store 	decision_yes[10] 	825
scalar abilene_cost_network.node[10].content_store 	decision_no[10] 	77006
scalar abilene_cost_network.node[10].content_store 	decision_ratio[10] 	0.010599889504182
scalar abilene_cost_network.client[2] 	hdistance[2] 	1.7786072846462
scalar abilene_cost_network.client[2] 	downloads[2] 	179089
scalar abilene_cost_network.client[2] 	avg_time[2] 	0.00711109974
scalar abilene_cost_network.client[2] 	interests_sent[2] 	179116
scalar abilene_cost_network.client[4] 	hdistance[4] 	1.6284735904452
scalar abilene_cost_network.client[4] 	downloads[4] 	180181
scalar abilene_cost_network.client[4] 	avg_time[4] 	0.005948968039
scalar abilene_cost_network.client[4] 	interests_sent[4] 	180187
scalar abilene_cost_network.client[8] 	hdistance[8] 	1.804152565525
scalar abilene_cost_network.client[8] 	downloads[8] 	179359
scalar abilene_cost_network.client[8] 	avg_time[8] 	0.00851264055
scalar abilene_cost_network.client[8] 	interests_sent[8] 	179378
