version 2
run General-7-20140902-15:48:21-4554
attr D fix0.01
attr F nrr
attr R lru
attr a 1
attr configname General
attr csize 1e3
attr ctlg 1e5
attr datetime 20140902-15:48:21
attr experiment General
attr inifile omnetpp.ini
attr iterationvars "$net=abilene_cost, $rep=20, $priceratiovalue=10, $weights=0.333_0.333_0.334, $lambda=100, $a=1, $ctlg=1e5, $F=nrr, $ttl=10, $D=fix0.01, $xi=1, $R=lru, $csize=1e3, $pricebits=0, $window=60, $variance=0.05, $mytime=1800"
attr iterationvars2 "$net=abilene_cost, $rep=20, $priceratiovalue=10, $weights=0.333_0.333_0.334, $lambda=100, $a=1, $ctlg=1e5, $F=nrr, $ttl=10, $D=fix0.01, $xi=1, $R=lru, $csize=1e3, $pricebits=0, $window=60, $variance=0.05, $mytime=1800, $repetition=0"
attr lambda 100
attr measurement "$net=abilene_cost, $rep=20, $priceratiovalue=10, $weights=0.333_0.333_0.334, $lambda=100, $a=1, $ctlg=1e5, $F=nrr, $ttl=10, $D=fix0.01, $xi=1, $R=lru, $csize=1e3, $pricebits=0, $window=60, $variance=0.05, $mytime=1800"
attr mytime 1800
attr net abilene_cost
attr network networks.${net=abilene_cost}_network
attr pricebits 0
attr priceratiovalue 10
attr processid 4554
attr rep 20
attr repetition 0
attr replication #0
attr resultdir results
attr runnumber 7
attr seedset 20
attr ttl 10
attr variance 0.05
attr weights 0.333_0.333_0.334
attr window 60
attr xi 1

scalar . 	a 	1
scalar . 	csize 	1e3
scalar . 	ctlg 	1e5
scalar . 	lambda 	100
scalar . 	mytime 	1800
scalar . 	pricebits 	0
scalar . 	priceratiovalue 	10
scalar . 	rep 	20
scalar . 	ttl 	10
scalar . 	variance 	0.05
scalar . 	window 	60
scalar . 	xi 	1
scalar abilene_cost_network.content_distribution 	repo-0 	3
scalar abilene_cost_network.content_distribution 	repo-1 	2
scalar abilene_cost_network.content_distribution 	repo-2 	0
scalar abilene_cost_network.content_distribution 	client-0 	10
scalar abilene_cost_network.content_distribution 	client-1 	1
scalar abilene_cost_network.content_distribution 	client-2 	7
scalar abilene_cost_network.content_distribution 	repo-0_card 	33322
scalar abilene_cost_network.content_distribution 	repo-0_price 	1
scalar abilene_cost_network.content_distribution 	repo-1_card 	33295
scalar abilene_cost_network.content_distribution 	repo-1_price 	0
scalar abilene_cost_network.content_distribution 	repo-2_card 	33383
scalar abilene_cost_network.content_distribution 	repo-2_price 	10
scalar abilene_cost_network.statistics 	repo_popularity[0] 	0.35214481683808
scalar abilene_cost_network.statistics 	repo_popularity[1] 	0.2979978729425
scalar abilene_cost_network.statistics 	repo_popularity[2] 	0.34985731021944
scalar abilene_cost_network.statistics 	stabilization_time 	36060
scalar abilene_cost_network.statistics 	p_hit 	0.24605180621453
scalar abilene_cost_network.statistics 	interests 	103332.63636364
scalar abilene_cost_network.statistics 	data 	54131.363636364
scalar abilene_cost_network.statistics 	hdistance 	1.5831725209061
scalar abilene_cost_network.statistics 	avg_time 	0.007418216854
scalar abilene_cost_network.statistics 	downloads 	541134
scalar abilene_cost_network.statistics 	total_cost 	916080
scalar abilene_cost_network.statistics 	total_replicas 	100000
scalar abilene_cost_network.statistics 	inner_hit 	0.51686828031504
scalar abilene_cost_network.statistics 	interests_sent 	541207
scalar abilene_cost_network.node[0].core_layer 	interests[0] 	90700
scalar abilene_cost_network.node[0].core_layer 	repo_load[0] 	82709
scalar abilene_cost_network.node[0].core_layer 	data[0] 	0
scalar abilene_cost_network.node[0].core_layer 	repo_int[0] 	261439
scalar abilene_cost_network.node[0].content_store 	p_hit[0] 	0.088103638368247
scalar abilene_cost_network.node[0].content_store 	hits[0] 	7991
scalar abilene_cost_network.node[0].content_store 	misses[0] 	82709
scalar abilene_cost_network.node[0].content_store 	decision_yes[0] 	817
scalar abilene_cost_network.node[0].content_store 	decision_no[0] 	81892
scalar abilene_cost_network.node[0].content_store 	decision_ratio[0] 	0.0098780060211102
scalar abilene_cost_network.node[1].core_layer 	interests[1] 	278552
scalar abilene_cost_network.node[1].core_layer 	data[1] 	205072
scalar abilene_cost_network.node[1].content_store 	p_hit[1] 	0.26360248714782
scalar abilene_cost_network.node[1].content_store 	hits[1] 	73427
scalar abilene_cost_network.node[1].content_store 	misses[1] 	205125
scalar abilene_cost_network.node[1].content_store 	decision_yes[1] 	1986
scalar abilene_cost_network.node[1].content_store 	decision_no[1] 	203086
scalar abilene_cost_network.node[1].content_store 	decision_ratio[1] 	0.0096844035265663
scalar abilene_cost_network.node[2].core_layer 	interests[2] 	194038
scalar abilene_cost_network.node[2].core_layer 	repo_load[2] 	89740
scalar abilene_cost_network.node[2].core_layer 	data[2] 	95270
scalar abilene_cost_network.node[2].content_store 	p_hit[2] 	0.046526968944227
scalar abilene_cost_network.node[2].content_store 	hits[2] 	9028
scalar abilene_cost_network.node[2].content_store 	misses[2] 	185010
scalar abilene_cost_network.node[2].content_store 	decision_yes[2] 	1879
scalar abilene_cost_network.node[2].content_store 	decision_no[2] 	183131
scalar abilene_cost_network.node[2].content_store 	decision_ratio[2] 	0.010156207772553
scalar abilene_cost_network.node[3].core_layer 	interests[3] 	158842
scalar abilene_cost_network.node[3].core_layer 	repo_load[3] 	88990
scalar abilene_cost_network.node[3].core_layer 	data[3] 	61695
scalar abilene_cost_network.node[3].content_store 	p_hit[3] 	0.051340325606578
scalar abilene_cost_network.node[3].content_store 	hits[3] 	8155
scalar abilene_cost_network.node[3].content_store 	misses[3] 	150687
scalar abilene_cost_network.node[3].content_store 	decision_yes[3] 	1517
scalar abilene_cost_network.node[3].content_store 	decision_no[3] 	149168
scalar abilene_cost_network.node[3].content_store 	decision_ratio[3] 	0.010067359060291
scalar abilene_cost_network.node[4].core_layer 	interests[4] 	0
scalar abilene_cost_network.node[4].core_layer 	data[4] 	0
scalar abilene_cost_network.node[4].content_store 	p_hit[4] 	-nan
scalar abilene_cost_network.node[4].content_store 	hits[4] 	0
scalar abilene_cost_network.node[4].content_store 	misses[4] 	0
scalar abilene_cost_network.node[4].content_store 	decision_yes[4] 	0
scalar abilene_cost_network.node[4].content_store 	decision_no[4] 	0
scalar abilene_cost_network.node[4].content_store 	decision_ratio[4] 	0
scalar abilene_cost_network.node[5].core_layer 	interests[5] 	0
scalar abilene_cost_network.node[5].core_layer 	data[5] 	0
scalar abilene_cost_network.node[5].content_store 	p_hit[5] 	-nan
scalar abilene_cost_network.node[5].content_store 	hits[5] 	0
scalar abilene_cost_network.node[5].content_store 	misses[5] 	0
scalar abilene_cost_network.node[5].content_store 	decision_yes[5] 	0
scalar abilene_cost_network.node[5].content_store 	decision_no[5] 	0
scalar abilene_cost_network.node[5].content_store 	decision_ratio[5] 	0
scalar abilene_cost_network.node[6].core_layer 	interests[6] 	0
scalar abilene_cost_network.node[6].core_layer 	data[6] 	0
scalar abilene_cost_network.node[6].content_store 	p_hit[6] 	-nan
scalar abilene_cost_network.node[6].content_store 	hits[6] 	0
scalar abilene_cost_network.node[6].content_store 	misses[6] 	0
scalar abilene_cost_network.node[6].content_store 	decision_yes[6] 	0
scalar abilene_cost_network.node[6].content_store 	decision_no[6] 	0
scalar abilene_cost_network.node[6].content_store 	decision_ratio[6] 	0
scalar abilene_cost_network.node[7].core_layer 	interests[7] 	181206
scalar abilene_cost_network.node[7].core_layer 	data[7] 	110198
scalar abilene_cost_network.node[7].content_store 	p_hit[7] 	0.39175303246029
scalar abilene_cost_network.node[7].content_store 	hits[7] 	70988
scalar abilene_cost_network.node[7].content_store 	misses[7] 	110218
scalar abilene_cost_network.node[7].content_store 	decision_yes[7] 	1125
scalar abilene_cost_network.node[7].content_store 	decision_no[7] 	109073
scalar abilene_cost_network.node[7].content_store 	decision_ratio[7] 	0.010208896713189
scalar abilene_cost_network.node[8].core_layer 	interests[8] 	19804
scalar abilene_cost_network.node[8].core_layer 	data[8] 	4683
scalar abilene_cost_network.node[8].content_store 	p_hit[8] 	0.76353261967279
scalar abilene_cost_network.node[8].content_store 	hits[8] 	15121
scalar abilene_cost_network.node[8].content_store 	misses[8] 	4683
scalar abilene_cost_network.node[8].content_store 	decision_yes[8] 	52
scalar abilene_cost_network.node[8].content_store 	decision_no[8] 	4631
scalar abilene_cost_network.node[8].content_store 	decision_ratio[8] 	0.011103993166773
scalar abilene_cost_network.node[9].core_layer 	interests[9] 	19336
scalar abilene_cost_network.node[9].core_layer 	data[9] 	4273
scalar abilene_cost_network.node[9].content_store 	p_hit[9] 	0.77901323955317
scalar abilene_cost_network.node[9].content_store 	hits[9] 	15063
scalar abilene_cost_network.node[9].content_store 	misses[9] 	4273
scalar abilene_cost_network.node[9].content_store 	decision_yes[9] 	53
scalar abilene_cost_network.node[9].content_store 	decision_no[9] 	4220
scalar abilene_cost_network.node[9].content_store 	decision_ratio[9] 	0.012403463608706
scalar abilene_cost_network.node[10].core_layer 	interests[10] 	194181
scalar abilene_cost_network.node[10].core_layer 	data[10] 	114254
scalar abilene_cost_network.node[10].content_store 	p_hit[10] 	0.41149237052029
scalar abilene_cost_network.node[10].content_store 	hits[10] 	79904
scalar abilene_cost_network.node[10].content_store 	misses[10] 	114277
scalar abilene_cost_network.node[10].content_store 	decision_yes[10] 	1134
scalar abilene_cost_network.node[10].content_store 	decision_no[10] 	113120
scalar abilene_cost_network.node[10].content_store 	decision_ratio[10] 	0.0099252542580566
scalar abilene_cost_network.client[1] 	hdistance[1] 	1.3283158825394
scalar abilene_cost_network.client[1] 	downloads[1] 	179839
scalar abilene_cost_network.client[1] 	avg_time[1] 	0.005906493365
scalar abilene_cost_network.client[1] 	interests_sent[1] 	179872
scalar abilene_cost_network.client[7] 	hdistance[7] 	1.7982377001544
scalar abilene_cost_network.client[7] 	downloads[7] 	180673
scalar abilene_cost_network.client[7] 	avg_time[7] 	0.007846417539
scalar abilene_cost_network.client[7] 	interests_sent[7] 	180693
scalar abilene_cost_network.client[10] 	hdistance[10] 	1.6229639800246
scalar abilene_cost_network.client[10] 	downloads[10] 	180622
scalar abilene_cost_network.client[10] 	avg_time[10] 	0.008501739659
scalar abilene_cost_network.client[10] 	interests_sent[10] 	180642
