version 2
run General-11-20140902-15:57:18-17330
attr D fix0.01
attr F nrr
attr R lru
attr a 1
attr configname General
attr csize 1e3
attr ctlg 1e5
attr datetime 20140902-15:57:18
attr experiment General
attr inifile omnetpp.ini
attr iterationvars "$net=abilene_cost, $rep=3, $priceratiovalue=10, $weights=0.333_0.333_0.334, $lambda=100, $a=1, $ctlg=1e5, $F=nrr, $ttl=10, $D=fix0.01, $xi=1, $R=lru, $csize=1e3, $pricebits=0, $window=60, $variance=0.05, $mytime=1800"
attr iterationvars2 "$net=abilene_cost, $rep=3, $priceratiovalue=10, $weights=0.333_0.333_0.334, $lambda=100, $a=1, $ctlg=1e5, $F=nrr, $ttl=10, $D=fix0.01, $xi=1, $R=lru, $csize=1e3, $pricebits=0, $window=60, $variance=0.05, $mytime=1800, $repetition=0"
attr lambda 100
attr measurement "$net=abilene_cost, $rep=3, $priceratiovalue=10, $weights=0.333_0.333_0.334, $lambda=100, $a=1, $ctlg=1e5, $F=nrr, $ttl=10, $D=fix0.01, $xi=1, $R=lru, $csize=1e3, $pricebits=0, $window=60, $variance=0.05, $mytime=1800"
attr mytime 1800
attr net abilene_cost
attr network networks.${net=abilene_cost}_network
attr pricebits 0
attr priceratiovalue 10
attr processid 17330
attr rep 3
attr repetition 0
attr replication #0
attr resultdir results
attr runnumber 11
attr seedset 3
attr ttl 10
attr variance 0.05
attr weights 0.333_0.333_0.334
attr window 60
attr xi 1

scalar . 	a 	1
scalar . 	csize 	1e3
scalar . 	ctlg 	1e5
scalar . 	lambda 	100
scalar . 	mytime 	1800
scalar . 	pricebits 	0
scalar . 	priceratiovalue 	10
scalar . 	rep 	3
scalar . 	ttl 	10
scalar . 	variance 	0.05
scalar . 	window 	60
scalar . 	xi 	1
scalar abilene_cost_network.content_distribution 	repo-0 	9
scalar abilene_cost_network.content_distribution 	repo-1 	4
scalar abilene_cost_network.content_distribution 	repo-2 	0
scalar abilene_cost_network.content_distribution 	client-0 	9
scalar abilene_cost_network.content_distribution 	client-1 	0
scalar abilene_cost_network.content_distribution 	client-2 	1
scalar abilene_cost_network.content_distribution 	repo-0_card 	33498
scalar abilene_cost_network.content_distribution 	repo-0_price 	0
scalar abilene_cost_network.content_distribution 	repo-1_card 	33168
scalar abilene_cost_network.content_distribution 	repo-1_price 	10
scalar abilene_cost_network.content_distribution 	repo-2_card 	33334
scalar abilene_cost_network.content_distribution 	repo-2_price 	1
scalar abilene_cost_network.statistics 	repo_popularity[0] 	0.34820484875244
scalar abilene_cost_network.statistics 	repo_popularity[1] 	0.25519349814637
scalar abilene_cost_network.statistics 	repo_popularity[2] 	0.3966016531012
scalar abilene_cost_network.statistics 	stabilization_time 	36060
scalar abilene_cost_network.statistics 	p_hit 	0.2385818780279
scalar abilene_cost_network.statistics 	interests 	102024.81818182
scalar abilene_cost_network.statistics 	data 	53026
scalar abilene_cost_network.statistics 	hdistance 	1.5855343392088
scalar abilene_cost_network.statistics 	avg_time 	0.006994818176
scalar abilene_cost_network.statistics 	downloads 	538919
scalar abilene_cost_network.statistics 	total_cost 	816810
scalar abilene_cost_network.statistics 	total_replicas 	100000
scalar abilene_cost_network.statistics 	inner_hit 	0.49684460930121
scalar abilene_cost_network.statistics 	interests_sent 	538989
scalar abilene_cost_network.node[0].core_layer 	interests[0] 	248098
scalar abilene_cost_network.node[0].core_layer 	repo_load[0] 	96210
scalar abilene_cost_network.node[0].core_layer 	data[0] 	76472
scalar abilene_cost_network.node[0].core_layer 	repo_int[0] 	271160
scalar abilene_cost_network.node[0].content_store 	p_hit[0] 	0.30390007174584
scalar abilene_cost_network.node[0].content_store 	hits[0] 	75397
scalar abilene_cost_network.node[0].content_store 	misses[0] 	172701
scalar abilene_cost_network.node[0].content_store 	decision_yes[0] 	1686
scalar abilene_cost_network.node[0].content_store 	decision_no[0] 	170996
scalar abilene_cost_network.node[0].content_store 	decision_ratio[0] 	0.0097636117255997
scalar abilene_cost_network.node[1].core_layer 	interests[1] 	218177
scalar abilene_cost_network.node[1].core_layer 	data[1] 	142226
scalar abilene_cost_network.node[1].content_store 	p_hit[1] 	0.3479514339275
scalar abilene_cost_network.node[1].content_store 	hits[1] 	75915
scalar abilene_cost_network.node[1].content_store 	misses[1] 	142262
scalar abilene_cost_network.node[1].content_store 	decision_yes[1] 	1426
scalar abilene_cost_network.node[1].content_store 	decision_no[1] 	140800
scalar abilene_cost_network.node[1].content_store 	decision_ratio[1] 	0.010026296176508
scalar abilene_cost_network.node[2].core_layer 	interests[2] 	92796
scalar abilene_cost_network.node[2].core_layer 	data[2] 	83992
scalar abilene_cost_network.node[2].content_store 	p_hit[2] 	0.094885555411871
scalar abilene_cost_network.node[2].content_store 	hits[2] 	8805
scalar abilene_cost_network.node[2].content_store 	misses[2] 	83991
scalar abilene_cost_network.node[2].content_store 	decision_yes[2] 	829
scalar abilene_cost_network.node[2].content_store 	decision_no[2] 	83163
scalar abilene_cost_network.node[2].content_store 	decision_ratio[2] 	0.0098699876178684
scalar abilene_cost_network.node[3].core_layer 	interests[3] 	79292
scalar abilene_cost_network.node[3].core_layer 	data[3] 	74925
scalar abilene_cost_network.node[3].content_store 	p_hit[3] 	0.055087524592645
scalar abilene_cost_network.node[3].content_store 	hits[3] 	4368
scalar abilene_cost_network.node[3].content_store 	misses[3] 	74924
scalar abilene_cost_network.node[3].content_store 	decision_yes[3] 	724
scalar abilene_cost_network.node[3].content_store 	decision_no[3] 	74201
scalar abilene_cost_network.node[3].content_store 	decision_ratio[3] 	0.009662996329663
scalar abilene_cost_network.node[4].core_layer 	interests[4] 	74925
scalar abilene_cost_network.node[4].core_layer 	repo_load[4] 	72060
scalar abilene_cost_network.node[4].core_layer 	data[4] 	0
scalar abilene_cost_network.node[4].content_store 	p_hit[4] 	0.038238238238238
scalar abilene_cost_network.node[4].content_store 	hits[4] 	2865
scalar abilene_cost_network.node[4].content_store 	misses[4] 	72060
scalar abilene_cost_network.node[4].content_store 	decision_yes[4] 	727
scalar abilene_cost_network.node[4].content_store 	decision_no[4] 	71333
scalar abilene_cost_network.node[4].content_store 	decision_ratio[4] 	0.010088814876492
scalar abilene_cost_network.node[5].core_layer 	interests[5] 	0
scalar abilene_cost_network.node[5].core_layer 	data[5] 	0
scalar abilene_cost_network.node[5].content_store 	p_hit[5] 	-nan
scalar abilene_cost_network.node[5].content_store 	hits[5] 	0
scalar abilene_cost_network.node[5].content_store 	misses[5] 	0
scalar abilene_cost_network.node[5].content_store 	decision_yes[5] 	0
scalar abilene_cost_network.node[5].content_store 	decision_no[5] 	0
scalar abilene_cost_network.node[5].content_store 	decision_ratio[5] 	0
scalar abilene_cost_network.node[6].core_layer 	interests[6] 	0
scalar abilene_cost_network.node[6].core_layer 	data[6] 	0
scalar abilene_cost_network.node[6].content_store 	p_hit[6] 	-nan
scalar abilene_cost_network.node[6].content_store 	hits[6] 	0
scalar abilene_cost_network.node[6].content_store 	misses[6] 	0
scalar abilene_cost_network.node[6].content_store 	decision_yes[6] 	0
scalar abilene_cost_network.node[6].content_store 	decision_no[6] 	0
scalar abilene_cost_network.node[6].content_store 	decision_ratio[6] 	0
scalar abilene_cost_network.node[7].core_layer 	interests[7] 	0
scalar abilene_cost_network.node[7].core_layer 	data[7] 	0
scalar abilene_cost_network.node[7].content_store 	p_hit[7] 	-nan
scalar abilene_cost_network.node[7].content_store 	hits[7] 	0
scalar abilene_cost_network.node[7].content_store 	misses[7] 	0
scalar abilene_cost_network.node[7].content_store 	decision_yes[7] 	0
scalar abilene_cost_network.node[7].content_store 	decision_no[7] 	0
scalar abilene_cost_network.node[7].content_store 	decision_ratio[7] 	0
scalar abilene_cost_network.node[8].core_layer 	interests[8] 	37199
scalar abilene_cost_network.node[8].core_layer 	data[8] 	28731
scalar abilene_cost_network.node[8].content_store 	p_hit[8] 	0.22766741041426
scalar abilene_cost_network.node[8].content_store 	hits[8] 	8469
scalar abilene_cost_network.node[8].content_store 	misses[8] 	28730
scalar abilene_cost_network.node[8].content_store 	decision_yes[8] 	271
scalar abilene_cost_network.node[8].content_store 	decision_no[8] 	28460
scalar abilene_cost_network.node[8].content_store 	decision_ratio[8] 	0.009432320490063
scalar abilene_cost_network.node[9].core_layer 	interests[9] 	248448
scalar abilene_cost_network.node[9].core_layer 	repo_load[9] 	102890
scalar abilene_cost_network.node[9].core_layer 	data[9] 	74087
scalar abilene_cost_network.node[9].content_store 	p_hit[9] 	0.28759740468831
scalar abilene_cost_network.node[9].content_store 	hits[9] 	71453
scalar abilene_cost_network.node[9].content_store 	misses[9] 	176995
scalar abilene_cost_network.node[9].content_store 	decision_yes[9] 	1797
scalar abilene_cost_network.node[9].content_store 	decision_no[9] 	175180
scalar abilene_cost_network.node[9].content_store 	decision_ratio[9] 	0.010153861801251
scalar abilene_cost_network.node[10].core_layer 	interests[10] 	123338
scalar abilene_cost_network.node[10].core_layer 	data[10] 	102853
scalar abilene_cost_network.node[10].content_store 	p_hit[10] 	0.16606398676807
scalar abilene_cost_network.node[10].content_store 	hits[10] 	20482
scalar abilene_cost_network.node[10].content_store 	misses[10] 	102856
scalar abilene_cost_network.node[10].content_store 	decision_yes[10] 	1054
scalar abilene_cost_network.node[10].content_store 	decision_no[10] 	101799
scalar abilene_cost_network.node[10].content_store 	decision_ratio[10] 	0.010247634974186
scalar abilene_cost_network.client[0] 	hdistance[0] 	1.6009165350287
scalar abilene_cost_network.client[0] 	downloads[0] 	179153
scalar abilene_cost_network.client[0] 	avg_time[0] 	0.006688521784
scalar abilene_cost_network.client[0] 	interests_sent[0] 	179172
scalar abilene_cost_network.client[1] 	hdistance[1] 	1.5908324382085
scalar abilene_cost_network.client[1] 	downloads[1] 	179677
scalar abilene_cost_network.client[1] 	avg_time[1] 	0.007315451228
scalar abilene_cost_network.client[1] 	interests_sent[1] 	179710
scalar abilene_cost_network.client[9] 	hdistance[9] 	1.5648540443892
scalar abilene_cost_network.client[9] 	downloads[9] 	180089
scalar abilene_cost_network.client[9] 	avg_time[9] 	0.006980481518
scalar abilene_cost_network.client[9] 	interests_sent[9] 	180107
