version 2
run General-3-20140902-15:22:40-27542
attr D fix0.01
attr F nrr
attr R lru
attr a 1
attr configname General
attr csize 1e3
attr ctlg 1e5
attr datetime 20140902-15:22:40
attr experiment General
attr inifile omnetpp.ini
attr iterationvars "$net=abilene_cost, $rep=11, $priceratiovalue=10, $weights=0.333_0.333_0.334, $lambda=100, $a=1, $ctlg=1e5, $F=nrr, $ttl=10, $D=fix0.01, $xi=1, $R=lru, $csize=1e3, $pricebits=0, $window=60, $variance=0.05, $mytime=1800"
attr iterationvars2 "$net=abilene_cost, $rep=11, $priceratiovalue=10, $weights=0.333_0.333_0.334, $lambda=100, $a=1, $ctlg=1e5, $F=nrr, $ttl=10, $D=fix0.01, $xi=1, $R=lru, $csize=1e3, $pricebits=0, $window=60, $variance=0.05, $mytime=1800, $repetition=0"
attr lambda 100
attr measurement "$net=abilene_cost, $rep=11, $priceratiovalue=10, $weights=0.333_0.333_0.334, $lambda=100, $a=1, $ctlg=1e5, $F=nrr, $ttl=10, $D=fix0.01, $xi=1, $R=lru, $csize=1e3, $pricebits=0, $window=60, $variance=0.05, $mytime=1800"
attr mytime 1800
attr net abilene_cost
attr network networks.${net=abilene_cost}_network
attr pricebits 0
attr priceratiovalue 10
attr processid 27542
attr rep 11
attr repetition 0
attr replication #0
attr resultdir results
attr runnumber 3
attr seedset 11
attr ttl 10
attr variance 0.05
attr weights 0.333_0.333_0.334
attr window 60
attr xi 1

scalar . 	a 	1
scalar . 	csize 	1e3
scalar . 	ctlg 	1e5
scalar . 	lambda 	100
scalar . 	mytime 	1800
scalar . 	pricebits 	0
scalar . 	priceratiovalue 	10
scalar . 	rep 	11
scalar . 	ttl 	10
scalar . 	variance 	0.05
scalar . 	window 	60
scalar . 	xi 	1
scalar abilene_cost_network.content_distribution 	repo-0 	1
scalar abilene_cost_network.content_distribution 	repo-1 	10
scalar abilene_cost_network.content_distribution 	repo-2 	9
scalar abilene_cost_network.content_distribution 	client-0 	4
scalar abilene_cost_network.content_distribution 	client-1 	3
scalar abilene_cost_network.content_distribution 	client-2 	5
scalar abilene_cost_network.content_distribution 	repo-0_card 	33091
scalar abilene_cost_network.content_distribution 	repo-0_price 	10
scalar abilene_cost_network.content_distribution 	repo-1_card 	33552
scalar abilene_cost_network.content_distribution 	repo-1_price 	1
scalar abilene_cost_network.content_distribution 	repo-2_card 	33357
scalar abilene_cost_network.content_distribution 	repo-2_price 	0
scalar abilene_cost_network.statistics 	repo_popularity[0] 	0.34138276193578
scalar abilene_cost_network.statistics 	repo_popularity[1] 	0.30435585390103
scalar abilene_cost_network.statistics 	repo_popularity[2] 	0.3542613841632
scalar abilene_cost_network.statistics 	stabilization_time 	36060
scalar abilene_cost_network.statistics 	p_hit 	0.18372484231402
scalar abilene_cost_network.statistics 	interests 	143481.36363636
scalar abilene_cost_network.statistics 	data 	94464.363636364
scalar abilene_cost_network.statistics 	hdistance 	2.3893666813507
scalar abilene_cost_network.statistics 	avg_time 	0.011626877346
scalar abilene_cost_network.statistics 	downloads 	539108
scalar abilene_cost_network.statistics 	total_cost 	992048
scalar abilene_cost_network.statistics 	total_replicas 	100000
scalar abilene_cost_network.statistics 	inner_hit 	0.53802021116363
scalar abilene_cost_network.statistics 	interests_sent 	539184
scalar abilene_cost_network.node[0].core_layer 	interests[0] 	0
scalar abilene_cost_network.node[0].core_layer 	data[0] 	0
scalar abilene_cost_network.node[0].core_layer 	repo_int[0] 	249057
scalar abilene_cost_network.node[0].content_store 	p_hit[0] 	-nan
scalar abilene_cost_network.node[0].content_store 	hits[0] 	0
scalar abilene_cost_network.node[0].content_store 	misses[0] 	0
scalar abilene_cost_network.node[0].content_store 	decision_yes[0] 	0
scalar abilene_cost_network.node[0].content_store 	decision_no[0] 	0
scalar abilene_cost_network.node[0].content_store 	decision_ratio[0] 	0
scalar abilene_cost_network.node[1].core_layer 	interests[1] 	188505
scalar abilene_cost_network.node[1].core_layer 	repo_load[1] 	90674
scalar abilene_cost_network.node[1].core_layer 	data[1] 	90491
scalar abilene_cost_network.node[1].content_store 	p_hit[1] 	0.038937959205326
scalar abilene_cost_network.node[1].content_store 	hits[1] 	7340
scalar abilene_cost_network.node[1].content_store 	misses[1] 	181165
scalar abilene_cost_network.node[1].content_store 	decision_yes[1] 	1804
scalar abilene_cost_network.node[1].content_store 	decision_no[1] 	179361
scalar abilene_cost_network.node[1].content_store 	decision_ratio[1] 	0.0099577733005823
scalar abilene_cost_network.node[2].core_layer 	interests[2] 	252101
scalar abilene_cost_network.node[2].core_layer 	data[2] 	241868
scalar abilene_cost_network.node[2].content_store 	p_hit[2] 	0.040590874292446
scalar abilene_cost_network.node[2].content_store 	hits[2] 	10233
scalar abilene_cost_network.node[2].content_store 	misses[2] 	241868
scalar abilene_cost_network.node[2].content_store 	decision_yes[2] 	2309
scalar abilene_cost_network.node[2].content_store 	decision_no[2] 	239559
scalar abilene_cost_network.node[2].content_store 	decision_ratio[2] 	0.0095465295119652
scalar abilene_cost_network.node[3].core_layer 	interests[3] 	349432
scalar abilene_cost_network.node[3].core_layer 	data[3] 	276346
scalar abilene_cost_network.node[3].content_store 	p_hit[3] 	0.20898486686966
scalar abilene_cost_network.node[3].content_store 	hits[3] 	73026
scalar abilene_cost_network.node[3].content_store 	misses[3] 	276406
scalar abilene_cost_network.node[3].content_store 	decision_yes[3] 	2849
scalar abilene_cost_network.node[3].content_store 	decision_no[3] 	273497
scalar abilene_cost_network.node[3].content_store 	decision_ratio[3] 	0.010309539490349
scalar abilene_cost_network.node[4].core_layer 	interests[4] 	270548
scalar abilene_cost_network.node[4].core_layer 	data[4] 	182890
scalar abilene_cost_network.node[4].content_store 	p_hit[4] 	0.32378727619498
scalar abilene_cost_network.node[4].content_store 	hits[4] 	87600
scalar abilene_cost_network.node[4].content_store 	misses[4] 	182948
scalar abilene_cost_network.node[4].content_store 	decision_yes[4] 	1834
scalar abilene_cost_network.node[4].content_store 	decision_no[4] 	181056
scalar abilene_cost_network.node[4].content_store 	decision_ratio[4] 	0.010027885614304
scalar abilene_cost_network.node[5].core_layer 	interests[5] 	192204
scalar abilene_cost_network.node[5].core_layer 	data[5] 	112900
scalar abilene_cost_network.node[5].content_store 	p_hit[5] 	0.41243678591497
scalar abilene_cost_network.node[5].content_store 	hits[5] 	79272
scalar abilene_cost_network.node[5].content_store 	misses[5] 	112932
scalar abilene_cost_network.node[5].content_store 	decision_yes[5] 	1107
scalar abilene_cost_network.node[5].content_store 	decision_no[5] 	111793
scalar abilene_cost_network.node[5].content_store 	decision_ratio[5] 	0.0098051372896368
scalar abilene_cost_network.node[6].core_layer 	interests[6] 	39110
scalar abilene_cost_network.node[6].core_layer 	data[6] 	29494
scalar abilene_cost_network.node[6].content_store 	p_hit[6] 	0.24587062132447
scalar abilene_cost_network.node[6].content_store 	hits[6] 	9616
scalar abilene_cost_network.node[6].content_store 	misses[6] 	29494
scalar abilene_cost_network.node[6].content_store 	decision_yes[6] 	281
scalar abilene_cost_network.node[6].content_store 	decision_no[6] 	29213
scalar abilene_cost_network.node[6].content_store 	decision_ratio[6] 	0.0095273614972537
scalar abilene_cost_network.node[7].core_layer 	interests[7] 	39845
scalar abilene_cost_network.node[7].core_layer 	data[7] 	29241
scalar abilene_cost_network.node[7].content_store 	p_hit[7] 	0.26613125862718
scalar abilene_cost_network.node[7].content_store 	hits[7] 	10604
scalar abilene_cost_network.node[7].content_store 	misses[7] 	29241
scalar abilene_cost_network.node[7].content_store 	decision_yes[7] 	271
scalar abilene_cost_network.node[7].content_store 	decision_no[7] 	28970
scalar abilene_cost_network.node[7].content_store 	decision_ratio[7] 	0.0092678088984645
scalar abilene_cost_network.node[8].core_layer 	interests[8] 	80181
scalar abilene_cost_network.node[8].core_layer 	data[8] 	75878
scalar abilene_cost_network.node[8].content_store 	p_hit[8] 	0.05356630623215
scalar abilene_cost_network.node[8].content_store 	hits[8] 	4295
scalar abilene_cost_network.node[8].content_store 	misses[8] 	75886
scalar abilene_cost_network.node[8].content_store 	decision_yes[8] 	731
scalar abilene_cost_network.node[8].content_store 	decision_no[8] 	75147
scalar abilene_cost_network.node[8].content_store 	decision_ratio[8] 	0.0096338859748544
scalar abilene_cost_network.node[9].core_layer 	interests[9] 	75878
scalar abilene_cost_network.node[9].core_layer 	repo_load[9] 	73075
scalar abilene_cost_network.node[9].core_layer 	data[9] 	0
scalar abilene_cost_network.node[9].content_store 	p_hit[9] 	0.036940878779093
scalar abilene_cost_network.node[9].content_store 	hits[9] 	2803
scalar abilene_cost_network.node[9].content_store 	misses[9] 	73075
scalar abilene_cost_network.node[9].content_store 	decision_yes[9] 	740
scalar abilene_cost_network.node[9].content_store 	decision_no[9] 	72335
scalar abilene_cost_network.node[9].content_store 	decision_ratio[9] 	0.010126582278481
scalar abilene_cost_network.node[10].core_layer 	interests[10] 	90491
scalar abilene_cost_network.node[10].core_layer 	repo_load[10] 	85308
scalar abilene_cost_network.node[10].core_layer 	data[10] 	0
scalar abilene_cost_network.node[10].content_store 	p_hit[10] 	0.057276414229039
scalar abilene_cost_network.node[10].content_store 	hits[10] 	5183
scalar abilene_cost_network.node[10].content_store 	misses[10] 	85308
scalar abilene_cost_network.node[10].content_store 	decision_yes[10] 	845
scalar abilene_cost_network.node[10].content_store 	decision_no[10] 	84463
scalar abilene_cost_network.node[10].content_store 	decision_ratio[10] 	0.0099052843813007
scalar abilene_cost_network.client[3] 	hdistance[3] 	1.9378259752733
scalar abilene_cost_network.client[3] 	downloads[3] 	179078
scalar abilene_cost_network.client[3] 	avg_time[3] 	0.009938651771
scalar abilene_cost_network.client[3] 	interests_sent[3] 	179100
scalar abilene_cost_network.client[4] 	hdistance[4] 	2.4313229906273
scalar abilene_cost_network.client[4] 	downloads[4] 	180417
scalar abilene_cost_network.client[4] 	avg_time[4] 	0.010878740461
scalar abilene_cost_network.client[4] 	interests_sent[4] 	180439
scalar abilene_cost_network.client[5] 	hdistance[5] 	2.7989510781514
scalar abilene_cost_network.client[5] 	downloads[5] 	179613
scalar abilene_cost_network.client[5] 	avg_time[5] 	0.014063239807
scalar abilene_cost_network.client[5] 	interests_sent[5] 	179645
