version 2
run General-0-20150723-17:35:58-29227
attr C 1e6
attr D lce
attr F spr
attr R partitionedn
attr a 1
attr brates 0.3_0.7_1.5_2.5_3.5
attr configname General
attr ctlg 1e8
attr datetime 20150723-17:35:58
attr experiment General
attr inifile omnetpp.ini
attr iterationvars "$net=abilene_nodelay, $rep=0, $lambda=100, $a=1, $ctlg=1e8, $brates=0.3_0.7_1.5_2.5_3.5, $F=spr, $ttl=1000, $D=lce, $R=partitionedn, $C=1e6, $window=60, $variance=0.05, $mytime=180000"
attr iterationvars2 "$net=abilene_nodelay, $rep=0, $lambda=100, $a=1, $ctlg=1e8, $brates=0.3_0.7_1.5_2.5_3.5, $F=spr, $ttl=1000, $D=lce, $R=partitionedn, $C=1e6, $window=60, $variance=0.05, $mytime=180000, $repetition=0"
attr lambda 100
attr measurement "$net=abilene_nodelay, $rep=0, $lambda=100, $a=1, $ctlg=1e8, $brates=0.3_0.7_1.5_2.5_3.5, $F=spr, $ttl=1000, $D=lce, $R=partitionedn, $C=1e6, $window=60, $variance=0.05, $mytime=180000"
attr mytime 180000
attr net abilene_nodelay
attr network networks.${net=abilene_nodelay}_network
attr processid 29227
attr rep 0
attr repetition 0
attr replication #0
attr resultdir results
attr runnumber 0
attr seedset 0
attr ttl 1000
attr variance 0.05
attr window 60

scalar . 	C 	1e6
scalar . 	a 	1
scalar . 	ctlg 	1e8
scalar . 	lambda 	100
scalar . 	mytime 	180000
scalar . 	rep 	0
scalar . 	ttl 	1000
scalar . 	variance 	0.05
scalar . 	window 	60
scalar abilene_nodelay_network.content_distribution 	repo-0 	5
scalar abilene_nodelay_network.content_distribution 	repo-1 	8
scalar abilene_nodelay_network.content_distribution 	repo-2 	9
scalar abilene_nodelay_network.content_distribution 	repo-3 	0
scalar abilene_nodelay_network.content_distribution 	repo-4 	1
scalar abilene_nodelay_network.content_distribution 	repo-5 	7
scalar abilene_nodelay_network.content_distribution 	repo-6 	6
scalar abilene_nodelay_network.content_distribution 	repo-7 	2
scalar abilene_nodelay_network.content_distribution 	repo-8 	4
scalar abilene_nodelay_network.content_distribution 	repo-9 	10
scalar abilene_nodelay_network.content_distribution 	repo-10 	3
scalar abilene_nodelay_network.content_distribution 	client-0 	10
scalar abilene_nodelay_network.content_distribution 	client-1 	9
scalar abilene_nodelay_network.content_distribution 	client-2 	8
scalar abilene_nodelay_network.content_distribution 	client-3 	7
scalar abilene_nodelay_network.content_distribution 	client-4 	3
scalar abilene_nodelay_network.content_distribution 	client-5 	6
scalar abilene_nodelay_network.content_distribution 	client-6 	5
scalar abilene_nodelay_network.content_distribution 	client-7 	1
scalar abilene_nodelay_network.content_distribution 	client-8 	4
scalar abilene_nodelay_network.content_distribution 	client-9 	0
scalar abilene_nodelay_network.content_distribution 	client-10 	2
scalar abilene_nodelay_network.content_distribution 	repo-0_card 	9095979
scalar abilene_nodelay_network.content_distribution 	repo-0_price 	0
scalar abilene_nodelay_network.content_distribution 	repo-1_card 	9088625
scalar abilene_nodelay_network.content_distribution 	repo-1_price 	0
scalar abilene_nodelay_network.content_distribution 	repo-2_card 	9091688
scalar abilene_nodelay_network.content_distribution 	repo-2_price 	0
scalar abilene_nodelay_network.content_distribution 	repo-3_card 	9088505
scalar abilene_nodelay_network.content_distribution 	repo-3_price 	0
scalar abilene_nodelay_network.content_distribution 	repo-4_card 	9088374
scalar abilene_nodelay_network.content_distribution 	repo-4_price 	0
scalar abilene_nodelay_network.content_distribution 	repo-5_card 	9091947
scalar abilene_nodelay_network.content_distribution 	repo-5_price 	0
scalar abilene_nodelay_network.content_distribution 	repo-6_card 	9088127
scalar abilene_nodelay_network.content_distribution 	repo-6_price 	0
scalar abilene_nodelay_network.content_distribution 	repo-7_card 	9091123
scalar abilene_nodelay_network.content_distribution 	repo-7_price 	0
scalar abilene_nodelay_network.content_distribution 	repo-8_card 	9090920
scalar abilene_nodelay_network.content_distribution 	repo-8_price 	0
scalar abilene_nodelay_network.content_distribution 	repo-9_card 	9093199
scalar abilene_nodelay_network.content_distribution 	repo-9_price 	0
scalar abilene_nodelay_network.content_distribution 	repo-10_card 	9091513
scalar abilene_nodelay_network.content_distribution 	repo-10_price 	0
scalar abilene_nodelay_network.statistics 	stabilization_time 	36060
scalar abilene_nodelay_network.statistics 	p_hit 	0.40707663409618
scalar abilene_nodelay_network.statistics 	interests 	31256323.363636
scalar abilene_nodelay_network.statistics 	data 	11975226.727273
scalar abilene_nodelay_network.statistics 	hdistance 	0.89121287765241
scalar abilene_nodelay_network.statistics 	avg_time 	0
scalar abilene_nodelay_network.statistics 	downloads 	198002845
scalar abilene_nodelay_network.statistics 	total_cost 	0
scalar abilene_nodelay_network.statistics 	total_replicas 	100000000
scalar abilene_nodelay_network.statistics 	"representations_downloaded 0.334003:0.0202497:0.0133165:0.0100739:0.622357:" 	0
scalar abilene_nodelay_network.statistics 	"slots_per_representation 100:233:500:833:1167:" 	0
scalar abilene_nodelay_network.statistics 	inner_hit 	0.63570647179337
scalar abilene_nodelay_network.statistics 	execution_time 	9612
scalar abilene_nodelay_network.node[0].core_layer 	interests[0] 	23295467
scalar abilene_nodelay_network.node[0].core_layer 	repo_load[0] 	6072886
scalar abilene_nodelay_network.node[0].core_layer 	data[0] 	5265125
scalar abilene_nodelay_network.node[0].core_layer 	slots_sent[face$o[1]->client[0]] 	14248361959
scalar abilene_nodelay_network.node[0].core_layer 	slots_sent[face$o[2]->node[1]] 	685196532
scalar abilene_nodelay_network.node[0].core_layer 	slots_sent[face$o[3]->node[10]] 	194491429
scalar abilene_nodelay_network.node[0].content_store 	p_hit[0] 	0.51329539776988
scalar abilene_nodelay_network.node[0].content_store 	hits[0] 	11957456
scalar abilene_nodelay_network.node[0].content_store 	misses[0] 	11338011
scalar abilene_nodelay_network.node[0].content_store 	decision_yes[0] 	5265125
scalar abilene_nodelay_network.node[0].content_store 	decision_no[0] 	6072886
scalar abilene_nodelay_network.node[0].content_store 	decision_ratio[0] 	0.46437818767331
scalar abilene_nodelay_network.node[0].content_store 	"representation_breakdown[0] 0x7ffcc0378ef8:0x7ffcc0378ef8:0x7ffcc0378ef8:0x7ffcc0378ef8:0x7ffcc0378ef8:" 	0
scalar abilene_nodelay_network.node[0].proactive_component 	hdistance[0].proactive_component 	1.9873223703315
scalar abilene_nodelay_network.node[0].proactive_component 	downloads[0].proactive_component 	854024
scalar abilene_nodelay_network.node[0].proactive_component 	avg_time[0].proactive_component 	0
scalar abilene_nodelay_network.node[1].core_layer 	interests[1] 	35375349
scalar abilene_nodelay_network.node[1].core_layer 	repo_load[1] 	6851362
scalar abilene_nodelay_network.node[1].core_layer 	data[1] 	15559687
scalar abilene_nodelay_network.node[1].core_layer 	slots_sent[face$o[1]->client[1]] 	13800179099
scalar abilene_nodelay_network.node[1].core_layer 	slots_sent[face$o[2]->node[0]] 	914685383
scalar abilene_nodelay_network.node[1].core_layer 	slots_sent[face$o[3]->node[10]] 	677887323
scalar abilene_nodelay_network.node[1].core_layer 	slots_sent[face$o[4]->node[2]] 	1687730724
scalar abilene_nodelay_network.node[1].content_store 	p_hit[1] 	0.36647836322406
scalar abilene_nodelay_network.node[1].content_store 	hits[1] 	12964300
scalar abilene_nodelay_network.node[1].content_store 	misses[1] 	22411049
scalar abilene_nodelay_network.node[1].content_store 	decision_yes[1] 	15559687
scalar abilene_nodelay_network.node[1].content_store 	decision_no[1] 	6851362
scalar abilene_nodelay_network.node[1].content_store 	decision_ratio[1] 	0.69428642095245
scalar abilene_nodelay_network.node[1].content_store 	"representation_breakdown[1] 0x7ffcc0378ef8:0x7ffcc0378ef8:0x7ffcc0378ef8:0x7ffcc0378ef8:0x7ffcc0378ef8:" 	0
scalar abilene_nodelay_network.node[1].proactive_component 	hdistance[1].proactive_component 	1.9911243587099
scalar abilene_nodelay_network.node[1].proactive_component 	downloads[1].proactive_component 	2045486
scalar abilene_nodelay_network.node[1].proactive_component 	avg_time[1].proactive_component 	0
scalar abilene_nodelay_network.node[2].core_layer 	interests[2] 	44141302
scalar abilene_nodelay_network.node[2].core_layer 	repo_load[2] 	7201274
scalar abilene_nodelay_network.node[2].core_layer 	data[2] 	23180044
scalar abilene_nodelay_network.node[2].core_layer 	slots_sent[face$o[1]->client[2]] 	13610420950
scalar abilene_nodelay_network.node[2].core_layer 	slots_sent[face$o[2]->node[1]] 	1892474777
scalar abilene_nodelay_network.node[2].core_layer 	slots_sent[face$o[3]->node[3]] 	2231709463
scalar abilene_nodelay_network.node[2].core_layer 	slots_sent[face$o[4]->node[8]] 	936883892
scalar abilene_nodelay_network.node[2].content_store 	p_hit[2] 	0.31172582992681
scalar abilene_nodelay_network.node[2].content_store 	hits[2] 	13759984
scalar abilene_nodelay_network.node[2].content_store 	misses[2] 	30381318
scalar abilene_nodelay_network.node[2].content_store 	decision_yes[2] 	23180044
scalar abilene_nodelay_network.node[2].content_store 	decision_no[2] 	7201274
scalar abilene_nodelay_network.node[2].content_store 	decision_ratio[2] 	0.762970322749
scalar abilene_nodelay_network.node[2].content_store 	"representation_breakdown[2] 0x7ffcc0378ef8:0x7ffcc0378ef8:0x7ffcc0378ef8:0x7ffcc0378ef8:0x7ffcc0378ef8:" 	0
scalar abilene_nodelay_network.node[2].proactive_component 	hdistance[2].proactive_component 	2.0051706718738
scalar abilene_nodelay_network.node[2].proactive_component 	downloads[2].proactive_component 	2871387
scalar abilene_nodelay_network.node[2].proactive_component 	avg_time[2].proactive_component 	0
scalar abilene_nodelay_network.node[3].core_layer 	interests[3] 	42031968
scalar abilene_nodelay_network.node[3].core_layer 	repo_load[3] 	6633170
scalar abilene_nodelay_network.node[3].core_layer 	data[3] 	21297116
scalar abilene_nodelay_network.node[3].core_layer 	slots_sent[face$o[1]->client[3]] 	14154695524
scalar abilene_nodelay_network.node[3].core_layer 	slots_sent[face$o[2]->node[2]] 	2189750040
scalar abilene_nodelay_network.node[3].core_layer 	slots_sent[face$o[3]->node[4]] 	1450886471
scalar abilene_nodelay_network.node[3].core_layer 	slots_sent[face$o[4]->node[7]] 	1023701611
scalar abilene_nodelay_network.node[3].content_store 	p_hit[3] 	0.33549897068822
scalar abilene_nodelay_network.node[3].content_store 	hits[3] 	14101682
scalar abilene_nodelay_network.node[3].content_store 	misses[3] 	27930286
scalar abilene_nodelay_network.node[3].content_store 	decision_yes[3] 	21297116
scalar abilene_nodelay_network.node[3].content_store 	decision_no[3] 	6633170
scalar abilene_nodelay_network.node[3].content_store 	decision_ratio[3] 	0.76250977165074
scalar abilene_nodelay_network.node[3].content_store 	"representation_breakdown[3] 0x7ffcc0378ef8:0x7ffcc0378ef8:0x7ffcc0378ef8:0x7ffcc0378ef8:0x7ffcc0378ef8:" 	0
scalar abilene_nodelay_network.node[3].proactive_component 	hdistance[3].proactive_component 	1.9787629734707
scalar abilene_nodelay_network.node[3].proactive_component 	downloads[3].proactive_component 	2717565
scalar abilene_nodelay_network.node[3].proactive_component 	avg_time[3].proactive_component 	0
scalar abilene_nodelay_network.node[4].core_layer 	interests[4] 	28798292
scalar abilene_nodelay_network.node[4].core_layer 	repo_load[4] 	6208881
scalar abilene_nodelay_network.node[4].core_layer 	data[4] 	9934299
scalar abilene_nodelay_network.node[4].core_layer 	slots_sent[face$o[1]->client[4]] 	14314020696
scalar abilene_nodelay_network.node[4].core_layer 	slots_sent[face$o[2]->node[3]] 	1210090663
scalar abilene_nodelay_network.node[4].core_layer 	slots_sent[face$o[3]->node[5]] 	768608640
scalar abilene_nodelay_network.node[4].content_store 	p_hit[4] 	0.43943967232501
scalar abilene_nodelay_network.node[4].content_store 	hits[4] 	12655112
scalar abilene_nodelay_network.node[4].content_store 	misses[4] 	16143180
scalar abilene_nodelay_network.node[4].content_store 	decision_yes[4] 	9934299
scalar abilene_nodelay_network.node[4].content_store 	decision_no[4] 	6208881
scalar abilene_nodelay_network.node[4].content_store 	decision_ratio[4] 	0.61538674536244
scalar abilene_nodelay_network.node[4].content_store 	"representation_breakdown[4] 0x7ffcc0378ef8:0x7ffcc0378ef8:0x7ffcc0378ef8:0x7ffcc0378ef8:0x7ffcc0378ef8:" 	0
scalar abilene_nodelay_network.node[4].proactive_component 	hdistance[4].proactive_component 	1.9687818093937
scalar abilene_nodelay_network.node[4].proactive_component 	downloads[4].proactive_component 	1425483
scalar abilene_nodelay_network.node[4].proactive_component 	avg_time[4].proactive_component 	0
scalar abilene_nodelay_network.node[5].core_layer 	interests[5] 	24541383
scalar abilene_nodelay_network.node[5].core_layer 	repo_load[5] 	7016342
scalar abilene_nodelay_network.node[5].core_layer 	data[5] 	6287255
scalar abilene_nodelay_network.node[5].core_layer 	slots_sent[face$o[1]->client[5]] 	13244448938
scalar abilene_nodelay_network.node[5].core_layer 	slots_sent[face$o[2]->node[4]] 	650049303
scalar abilene_nodelay_network.node[5].core_layer 	slots_sent[face$o[3]->node[6]] 	472076408
scalar abilene_nodelay_network.node[5].content_store 	p_hit[5] 	0.45791168329837
scalar abilene_nodelay_network.node[5].content_store 	hits[5] 	11237786
scalar abilene_nodelay_network.node[5].content_store 	misses[5] 	13303597
scalar abilene_nodelay_network.node[5].content_store 	decision_yes[5] 	6287255
scalar abilene_nodelay_network.node[5].content_store 	decision_no[5] 	7016342
scalar abilene_nodelay_network.node[5].content_store 	decision_ratio[5] 	0.47259812515367
scalar abilene_nodelay_network.node[5].content_store 	"representation_breakdown[5] 0x7ffcc0378ef8:0x7ffcc0378ef8:0x7ffcc0378ef8:0x7ffcc0378ef8:0x7ffcc0378ef8:" 	0
scalar abilene_nodelay_network.node[5].proactive_component 	hdistance[5].proactive_component 	1.9702504209577
scalar abilene_nodelay_network.node[5].proactive_component 	downloads[5].proactive_component 	1049393
scalar abilene_nodelay_network.node[5].proactive_component 	avg_time[5].proactive_component 	0
scalar abilene_nodelay_network.node[6].core_layer 	interests[6] 	26624096
scalar abilene_nodelay_network.node[6].core_layer 	repo_load[6] 	6068526
scalar abilene_nodelay_network.node[6].core_layer 	data[6] 	8170548
scalar abilene_nodelay_network.node[6].core_layer 	slots_sent[face$o[1]->client[6]] 	14241623789
scalar abilene_nodelay_network.node[6].core_layer 	slots_sent[face$o[2]->node[5]] 	531139371
scalar abilene_nodelay_network.node[6].core_layer 	slots_sent[face$o[3]->node[7]] 	1003851038
scalar abilene_nodelay_network.node[6].content_store 	p_hit[6] 	0.46518093985238
scalar abilene_nodelay_network.node[6].content_store 	hits[6] 	12385022
scalar abilene_nodelay_network.node[6].content_store 	misses[6] 	14239074
scalar abilene_nodelay_network.node[6].content_store 	decision_yes[6] 	8170548
scalar abilene_nodelay_network.node[6].content_store 	decision_no[6] 	6068526
scalar abilene_nodelay_network.node[6].content_store 	decision_ratio[6] 	0.57381175208444
scalar abilene_nodelay_network.node[6].content_store 	"representation_breakdown[6] 0x7ffcc0378ef8:0x7ffcc0378ef8:0x7ffcc0378ef8:0x7ffcc0378ef8:0x7ffcc0378ef8:" 	0
scalar abilene_nodelay_network.node[6].proactive_component 	hdistance[6].proactive_component 	1.9603456328074
scalar abilene_nodelay_network.node[6].proactive_component 	downloads[6].proactive_component 	1254742
scalar abilene_nodelay_network.node[6].proactive_component 	avg_time[6].proactive_component 	0
scalar abilene_nodelay_network.node[7].core_layer 	interests[7] 	33647052
scalar abilene_nodelay_network.node[7].core_layer 	repo_load[7] 	6536560
scalar abilene_nodelay_network.node[7].core_layer 	data[7] 	13731979
scalar abilene_nodelay_network.node[7].core_layer 	slots_sent[face$o[1]->client[7]] 	14359771995
scalar abilene_nodelay_network.node[7].core_layer 	slots_sent[face$o[2]->node[3]] 	901846361
scalar abilene_nodelay_network.node[7].core_layer 	slots_sent[face$o[3]->node[6]] 	1221581418
scalar abilene_nodelay_network.node[7].core_layer 	slots_sent[face$o[4]->node[8]] 	828451819
scalar abilene_nodelay_network.node[7].content_store 	p_hit[7] 	0.39761322923625
scalar abilene_nodelay_network.node[7].content_store 	hits[7] 	13378513
scalar abilene_nodelay_network.node[7].content_store 	misses[7] 	20268539
scalar abilene_nodelay_network.node[7].content_store 	decision_yes[7] 	13731979
scalar abilene_nodelay_network.node[7].content_store 	decision_no[7] 	6536560
scalar abilene_nodelay_network.node[7].content_store 	decision_ratio[7] 	0.67750216234135
scalar abilene_nodelay_network.node[7].content_store 	"representation_breakdown[7] 0x7ffcc0378ef8:0x7ffcc0378ef8:0x7ffcc0378ef8:0x7ffcc0378ef8:0x7ffcc0378ef8:" 	0
scalar abilene_nodelay_network.node[7].proactive_component 	hdistance[7].proactive_component 	1.8944649877017
scalar abilene_nodelay_network.node[7].proactive_component 	downloads[7].proactive_component 	1988487
scalar abilene_nodelay_network.node[7].proactive_component 	avg_time[7].proactive_component 	0
scalar abilene_nodelay_network.node[8].core_layer 	interests[8] 	32618469
scalar abilene_nodelay_network.node[8].core_layer 	repo_load[8] 	6468749
scalar abilene_nodelay_network.node[8].core_layer 	data[8] 	12837993
scalar abilene_nodelay_network.node[8].core_layer 	slots_sent[face$o[1]->client[8]] 	14476045809
scalar abilene_nodelay_network.node[8].core_layer 	slots_sent[face$o[2]->node[2]] 	823892868
scalar abilene_nodelay_network.node[8].core_layer 	slots_sent[face$o[3]->node[7]] 	823741067
scalar abilene_nodelay_network.node[8].core_layer 	slots_sent[face$o[4]->node[9]] 	1090860312
scalar abilene_nodelay_network.node[8].content_store 	p_hit[8] 	0.40810397937438
scalar abilene_nodelay_network.node[8].content_store 	hits[8] 	13311727
scalar abilene_nodelay_network.node[8].content_store 	misses[8] 	19306742
scalar abilene_nodelay_network.node[8].content_store 	decision_yes[8] 	12837993
scalar abilene_nodelay_network.node[8].content_store 	decision_no[8] 	6468749
scalar abilene_nodelay_network.node[8].content_store 	decision_ratio[8] 	0.66494870030376
scalar abilene_nodelay_network.node[8].content_store 	"representation_breakdown[8] 0x7ffcc0378ef8:0x7ffcc0378ef8:0x7ffcc0378ef8:0x7ffcc0378ef8:0x7ffcc0378ef8:" 	0
scalar abilene_nodelay_network.node[8].proactive_component 	hdistance[8].proactive_component 	1.8861281684536
scalar abilene_nodelay_network.node[8].proactive_component 	downloads[8].proactive_component 	1859740
scalar abilene_nodelay_network.node[8].proactive_component 	avg_time[8].proactive_component 	0
scalar abilene_nodelay_network.node[9].core_layer 	interests[9] 	26692680
scalar abilene_nodelay_network.node[9].core_layer 	repo_load[9] 	6271759
scalar abilene_nodelay_network.node[9].core_layer 	data[9] 	8177647
scalar abilene_nodelay_network.node[9].core_layer 	slots_sent[face$o[1]->client[9]] 	14066397022
scalar abilene_nodelay_network.node[9].core_layer 	slots_sent[face$o[2]->node[10]] 	632836489
scalar abilene_nodelay_network.node[9].core_layer 	slots_sent[face$o[3]->node[8]] 	930870703
scalar abilene_nodelay_network.node[9].content_store 	p_hit[9] 	0.45867533720855
scalar abilene_nodelay_network.node[9].content_store 	hits[9] 	12243274
scalar abilene_nodelay_network.node[9].content_store 	misses[9] 	14449406
scalar abilene_nodelay_network.node[9].content_store 	decision_yes[9] 	8177647
scalar abilene_nodelay_network.node[9].content_store 	decision_no[9] 	6271759
scalar abilene_nodelay_network.node[9].content_store 	decision_ratio[9] 	0.56595039270126
scalar abilene_nodelay_network.node[9].content_store 	"representation_breakdown[9] 0x7ffcc0378ef8:0x7ffcc0378ef8:0x7ffcc0378ef8:0x7ffcc0378ef8:0x7ffcc0378ef8:" 	0
scalar abilene_nodelay_network.node[9].proactive_component 	hdistance[9].proactive_component 	1.9303629762757
scalar abilene_nodelay_network.node[9].proactive_component 	downloads[9].proactive_component 	1248043
scalar abilene_nodelay_network.node[9].proactive_component 	avg_time[9].proactive_component 	0
scalar abilene_nodelay_network.node[10].core_layer 	interests[10] 	26053499
scalar abilene_nodelay_network.node[10].core_layer 	repo_load[10] 	6801646
scalar abilene_nodelay_network.node[10].core_layer 	data[10] 	7285801
scalar abilene_nodelay_network.node[10].core_layer 	slots_sent[face$o[1]->client[10]] 	13819110017
scalar abilene_nodelay_network.node[10].core_layer 	slots_sent[face$o[2]->node[0]] 	214617091
scalar abilene_nodelay_network.node[10].core_layer 	slots_sent[face$o[3]->node[1]] 	589887438
scalar abilene_nodelay_network.node[10].core_layer 	slots_sent[face$o[4]->node[9]] 	577588753
scalar abilene_nodelay_network.node[10].content_store 	p_hit[10] 	0.45928771409936
scalar abilene_nodelay_network.node[10].content_store 	hits[10] 	11966052
scalar abilene_nodelay_network.node[10].content_store 	misses[10] 	14087447
scalar abilene_nodelay_network.node[10].content_store 	decision_yes[10] 	7285801
scalar abilene_nodelay_network.node[10].content_store 	decision_no[10] 	6801646
scalar abilene_nodelay_network.node[10].content_store 	decision_ratio[10] 	0.51718391558101
scalar abilene_nodelay_network.node[10].content_store 	"representation_breakdown[10] 0x7ffcc0378ef8:0x7ffcc0378ef8:0x7ffcc0378ef8:0x7ffcc0378ef8:0x7ffcc0378ef8:" 	0
scalar abilene_nodelay_network.node[10].proactive_component 	hdistance[10].proactive_component 	1.9239576780561
scalar abilene_nodelay_network.node[10].proactive_component 	downloads[10].proactive_component 	1231985
scalar abilene_nodelay_network.node[10].proactive_component 	avg_time[10].proactive_component 	0
scalar abilene_nodelay_network.client[0] 	hdistance[0].real 	1.0056946235945
scalar abilene_nodelay_network.client[0] 	downloads[0].real 	18002419
scalar abilene_nodelay_network.client[0] 	avg_time[0].real 	0
scalar abilene_nodelay_network.client[1] 	hdistance[1].real 	0.87474095796462
scalar abilene_nodelay_network.client[1] 	downloads[1].real 	17996114
scalar abilene_nodelay_network.client[1] 	avg_time[1].real 	0
scalar abilene_nodelay_network.client[2] 	hdistance[2].real 	0.79815710728195
scalar abilene_nodelay_network.client[2] 	downloads[2].real 	18001699
scalar abilene_nodelay_network.client[2] 	avg_time[2].real 	0
scalar abilene_nodelay_network.client[3] 	hdistance[3].real 	0.79100810753962
scalar abilene_nodelay_network.client[3] 	downloads[3].real 	18000282
scalar abilene_nodelay_network.client[3] 	avg_time[3].real 	0
scalar abilene_nodelay_network.client[4] 	hdistance[4].real 	0.91853122004754
scalar abilene_nodelay_network.client[4] 	downloads[4].real 	17997250
scalar abilene_nodelay_network.client[4] 	avg_time[4].real 	0
scalar abilene_nodelay_network.client[5] 	hdistance[5].real 	1.06421421128
scalar abilene_nodelay_network.client[5] 	downloads[5].real 	17997745
scalar abilene_nodelay_network.client[5] 	avg_time[5].real 	0
scalar abilene_nodelay_network.client[6] 	hdistance[6].real 	0.94738987094659
scalar abilene_nodelay_network.client[6] 	downloads[6].real 	18002788
scalar abilene_nodelay_network.client[6] 	avg_time[6].real 	0
scalar abilene_nodelay_network.client[7] 	hdistance[7].real 	0.79766093853351
scalar abilene_nodelay_network.client[7] 	downloads[7].real 	17999698
scalar abilene_nodelay_network.client[7] 	avg_time[7].real 	0
scalar abilene_nodelay_network.client[8] 	hdistance[8].real 	0.76908075107172
scalar abilene_nodelay_network.client[8] 	downloads[8].real 	18002436
scalar abilene_nodelay_network.client[8] 	avg_time[8].real 	0
scalar abilene_nodelay_network.client[9] 	hdistance[9].real 	0.89531090056725
scalar abilene_nodelay_network.client[9] 	downloads[9].real 	18002476
scalar abilene_nodelay_network.client[9] 	avg_time[9].real 	0
scalar abilene_nodelay_network.client[10] 	hdistance[10].real 	0.94155296534917
scalar abilene_nodelay_network.client[10] 	downloads[10].real 	17999938
scalar abilene_nodelay_network.client[10] 	avg_time[10].real 	0
