version 2
run General-1-20150723-17:35:58-29228
attr C 1e6
attr D lce
attr F spr
attr R partitionedn
attr a 1
attr brates 0.3_0.7_1.5_2.5_3.5
attr configname General
attr ctlg 1e8
attr datetime 20150723-17:35:58
attr experiment General
attr inifile omnetpp.ini
attr iterationvars "$net=abilene_nodelay, $rep=1, $lambda=100, $a=1, $ctlg=1e8, $brates=0.3_0.7_1.5_2.5_3.5, $F=spr, $ttl=1000, $D=lce, $R=partitionedn, $C=1e6, $window=60, $variance=0.05, $mytime=180000"
attr iterationvars2 "$net=abilene_nodelay, $rep=1, $lambda=100, $a=1, $ctlg=1e8, $brates=0.3_0.7_1.5_2.5_3.5, $F=spr, $ttl=1000, $D=lce, $R=partitionedn, $C=1e6, $window=60, $variance=0.05, $mytime=180000, $repetition=0"
attr lambda 100
attr measurement "$net=abilene_nodelay, $rep=1, $lambda=100, $a=1, $ctlg=1e8, $brates=0.3_0.7_1.5_2.5_3.5, $F=spr, $ttl=1000, $D=lce, $R=partitionedn, $C=1e6, $window=60, $variance=0.05, $mytime=180000"
attr mytime 180000
attr net abilene_nodelay
attr network networks.${net=abilene_nodelay}_network
attr processid 29228
attr rep 1
attr repetition 0
attr replication #0
attr resultdir results
attr runnumber 1
attr seedset 1
attr ttl 1000
attr variance 0.05
attr window 60

scalar . 	C 	1e6
scalar . 	a 	1
scalar . 	ctlg 	1e8
scalar . 	lambda 	100
scalar . 	mytime 	180000
scalar . 	rep 	1
scalar . 	ttl 	1000
scalar . 	variance 	0.05
scalar . 	window 	60
scalar abilene_nodelay_network.content_distribution 	repo-0 	10
scalar abilene_nodelay_network.content_distribution 	repo-1 	7
scalar abilene_nodelay_network.content_distribution 	repo-2 	5
scalar abilene_nodelay_network.content_distribution 	repo-3 	1
scalar abilene_nodelay_network.content_distribution 	repo-4 	8
scalar abilene_nodelay_network.content_distribution 	repo-5 	2
scalar abilene_nodelay_network.content_distribution 	repo-6 	9
scalar abilene_nodelay_network.content_distribution 	repo-7 	4
scalar abilene_nodelay_network.content_distribution 	repo-8 	6
scalar abilene_nodelay_network.content_distribution 	repo-9 	3
scalar abilene_nodelay_network.content_distribution 	repo-10 	0
scalar abilene_nodelay_network.content_distribution 	client-0 	7
scalar abilene_nodelay_network.content_distribution 	client-1 	5
scalar abilene_nodelay_network.content_distribution 	client-2 	9
scalar abilene_nodelay_network.content_distribution 	client-3 	6
scalar abilene_nodelay_network.content_distribution 	client-4 	8
scalar abilene_nodelay_network.content_distribution 	client-5 	2
scalar abilene_nodelay_network.content_distribution 	client-6 	1
scalar abilene_nodelay_network.content_distribution 	client-7 	10
scalar abilene_nodelay_network.content_distribution 	client-8 	0
scalar abilene_nodelay_network.content_distribution 	client-9 	3
scalar abilene_nodelay_network.content_distribution 	client-10 	4
scalar abilene_nodelay_network.content_distribution 	repo-0_card 	9091588
scalar abilene_nodelay_network.content_distribution 	repo-0_price 	0
scalar abilene_nodelay_network.content_distribution 	repo-1_card 	9095721
scalar abilene_nodelay_network.content_distribution 	repo-1_price 	0
scalar abilene_nodelay_network.content_distribution 	repo-2_card 	9094056
scalar abilene_nodelay_network.content_distribution 	repo-2_price 	0
scalar abilene_nodelay_network.content_distribution 	repo-3_card 	9087421
scalar abilene_nodelay_network.content_distribution 	repo-3_price 	0
scalar abilene_nodelay_network.content_distribution 	repo-4_card 	9090280
scalar abilene_nodelay_network.content_distribution 	repo-4_price 	0
scalar abilene_nodelay_network.content_distribution 	repo-5_card 	9089080
scalar abilene_nodelay_network.content_distribution 	repo-5_price 	0
scalar abilene_nodelay_network.content_distribution 	repo-6_card 	9091836
scalar abilene_nodelay_network.content_distribution 	repo-6_price 	0
scalar abilene_nodelay_network.content_distribution 	repo-7_card 	9094026
scalar abilene_nodelay_network.content_distribution 	repo-7_price 	0
scalar abilene_nodelay_network.content_distribution 	repo-8_card 	9090973
scalar abilene_nodelay_network.content_distribution 	repo-8_price 	0
scalar abilene_nodelay_network.content_distribution 	repo-9_card 	9087838
scalar abilene_nodelay_network.content_distribution 	repo-9_price 	0
scalar abilene_nodelay_network.content_distribution 	repo-10_card 	9087181
scalar abilene_nodelay_network.content_distribution 	repo-10_price 	0
scalar abilene_nodelay_network.statistics 	stabilization_time 	36060
scalar abilene_nodelay_network.statistics 	p_hit 	0.4070593719097
scalar abilene_nodelay_network.statistics 	interests 	31254706.909091
scalar abilene_nodelay_network.statistics 	data 	11975271.363636
scalar abilene_nodelay_network.statistics 	hdistance 	0.89134846413484
scalar abilene_nodelay_network.statistics 	avg_time 	0
scalar abilene_nodelay_network.statistics 	downloads 	198000153
scalar abilene_nodelay_network.statistics 	total_cost 	0
scalar abilene_nodelay_network.statistics 	total_replicas 	100000000
scalar abilene_nodelay_network.statistics 	"representations_downloaded 0.33403:0.0202261:0.0132981:0.0100593:0.622386:" 	0
scalar abilene_nodelay_network.statistics 	"slots_per_representation 100:233:500:833:1167:" 	0
scalar abilene_nodelay_network.statistics 	inner_hit 	0.63572727138246
scalar abilene_nodelay_network.statistics 	execution_time 	9301
scalar abilene_nodelay_network.node[0].core_layer 	interests[0] 	23283325
scalar abilene_nodelay_network.node[0].core_layer 	repo_load[0] 	6122137
scalar abilene_nodelay_network.node[0].core_layer 	data[0] 	5266630
scalar abilene_nodelay_network.node[0].core_layer 	slots_sent[face$o[1]->client[0]] 	14180850843
scalar abilene_nodelay_network.node[0].core_layer 	slots_sent[face$o[2]->node[1]] 	683735482
scalar abilene_nodelay_network.node[0].core_layer 	slots_sent[face$o[3]->node[10]] 	194347816
scalar abilene_nodelay_network.node[0].content_store 	p_hit[0] 	0.5108616574308
scalar abilene_nodelay_network.node[0].content_store 	hits[0] 	11894558
scalar abilene_nodelay_network.node[0].content_store 	misses[0] 	11388767
scalar abilene_nodelay_network.node[0].content_store 	decision_yes[0] 	5266630
scalar abilene_nodelay_network.node[0].content_store 	decision_no[0] 	6122137
scalar abilene_nodelay_network.node[0].content_store 	decision_ratio[0] 	0.46244075412202
scalar abilene_nodelay_network.node[0].content_store 	"representation_breakdown[0] 0x7fffa19d4648:0x7fffa19d4648:0x7fffa19d4648:0x7fffa19d4648:0x7fffa19d4648:" 	0
scalar abilene_nodelay_network.node[0].proactive_component 	hdistance[0].proactive_component 	1.9893291238039
scalar abilene_nodelay_network.node[0].proactive_component 	downloads[0].proactive_component 	854569
scalar abilene_nodelay_network.node[0].proactive_component 	avg_time[0].proactive_component 	0
scalar abilene_nodelay_network.node[1].core_layer 	interests[1] 	35367912
scalar abilene_nodelay_network.node[1].core_layer 	repo_load[1] 	7337947
scalar abilene_nodelay_network.node[1].core_layer 	data[1] 	15554880
scalar abilene_nodelay_network.node[1].core_layer 	slots_sent[face$o[1]->client[1]] 	13283190053
scalar abilene_nodelay_network.node[1].core_layer 	slots_sent[face$o[2]->node[0]] 	914591262
scalar abilene_nodelay_network.node[1].core_layer 	slots_sent[face$o[3]->node[10]] 	677125445
scalar abilene_nodelay_network.node[1].core_layer 	slots_sent[face$o[4]->node[2]] 	1683666423
scalar abilene_nodelay_network.node[1].content_store 	p_hit[1] 	0.35272325377874
scalar abilene_nodelay_network.node[1].content_store 	hits[1] 	12475085
scalar abilene_nodelay_network.node[1].content_store 	misses[1] 	22892827
scalar abilene_nodelay_network.node[1].content_store 	decision_yes[1] 	15554880
scalar abilene_nodelay_network.node[1].content_store 	decision_no[1] 	7337947
scalar abilene_nodelay_network.node[1].content_store 	decision_ratio[1] 	0.67946523162037
scalar abilene_nodelay_network.node[1].content_store 	"representation_breakdown[1] 0x7fffa19d4648:0x7fffa19d4648:0x7fffa19d4648:0x7fffa19d4648:0x7fffa19d4648:" 	0
scalar abilene_nodelay_network.node[1].proactive_component 	hdistance[1].proactive_component 	1.9910243024708
scalar abilene_nodelay_network.node[1].proactive_component 	downloads[1].proactive_component 	2042961
scalar abilene_nodelay_network.node[1].proactive_component 	avg_time[1].proactive_component 	0
scalar abilene_nodelay_network.node[2].core_layer 	interests[2] 	44125135
scalar abilene_nodelay_network.node[2].core_layer 	repo_load[2] 	6825918
scalar abilene_nodelay_network.node[2].core_layer 	data[2] 	23182274
scalar abilene_nodelay_network.node[2].core_layer 	slots_sent[face$o[1]->client[2]] 	13996075096
scalar abilene_nodelay_network.node[2].core_layer 	slots_sent[face$o[2]->node[1]] 	1889129201
scalar abilene_nodelay_network.node[2].core_layer 	slots_sent[face$o[3]->node[3]] 	2231222261
scalar abilene_nodelay_network.node[2].core_layer 	slots_sent[face$o[4]->node[8]] 	936201288
scalar abilene_nodelay_network.node[2].content_store 	p_hit[2] 	0.31992974072487
scalar abilene_nodelay_network.node[2].content_store 	hits[2] 	14116943
scalar abilene_nodelay_network.node[2].content_store 	misses[2] 	30008192
scalar abilene_nodelay_network.node[2].content_store 	decision_yes[2] 	23182274
scalar abilene_nodelay_network.node[2].content_store 	decision_no[2] 	6825918
scalar abilene_nodelay_network.node[2].content_store 	decision_ratio[2] 	0.77253151406123
scalar abilene_nodelay_network.node[2].content_store 	"representation_breakdown[2] 0x7fffa19d4648:0x7fffa19d4648:0x7fffa19d4648:0x7fffa19d4648:0x7fffa19d4648:" 	0
scalar abilene_nodelay_network.node[2].proactive_component 	hdistance[2].proactive_component 	2.0053808862381
scalar abilene_nodelay_network.node[2].proactive_component 	downloads[2].proactive_component 	2866814
scalar abilene_nodelay_network.node[2].proactive_component 	avg_time[2].proactive_component 	0
scalar abilene_nodelay_network.node[3].core_layer 	interests[3] 	42024719
scalar abilene_nodelay_network.node[3].core_layer 	repo_load[3] 	6856907
scalar abilene_nodelay_network.node[3].core_layer 	data[3] 	21295163
scalar abilene_nodelay_network.node[3].core_layer 	slots_sent[face$o[1]->client[3]] 	13912249160
scalar abilene_nodelay_network.node[3].core_layer 	slots_sent[face$o[2]->node[2]] 	2186290850
scalar abilene_nodelay_network.node[3].core_layer 	slots_sent[face$o[3]->node[4]] 	1450803919
scalar abilene_nodelay_network.node[3].core_layer 	slots_sent[face$o[4]->node[7]] 	1021541676
scalar abilene_nodelay_network.node[3].content_store 	p_hit[3] 	0.33010688304662
scalar abilene_nodelay_network.node[3].content_store 	hits[3] 	13872649
scalar abilene_nodelay_network.node[3].content_store 	misses[3] 	28152070
scalar abilene_nodelay_network.node[3].content_store 	decision_yes[3] 	21295163
scalar abilene_nodelay_network.node[3].content_store 	decision_no[3] 	6856907
scalar abilene_nodelay_network.node[3].content_store 	decision_ratio[3] 	0.75643329247192
scalar abilene_nodelay_network.node[3].content_store 	"representation_breakdown[3] 0x7fffa19d4648:0x7fffa19d4648:0x7fffa19d4648:0x7fffa19d4648:0x7fffa19d4648:" 	0
scalar abilene_nodelay_network.node[3].proactive_component 	hdistance[3].proactive_component 	1.9780098694383
scalar abilene_nodelay_network.node[3].proactive_component 	downloads[3].proactive_component 	2716264
scalar abilene_nodelay_network.node[3].proactive_component 	avg_time[3].proactive_component 	0
scalar abilene_nodelay_network.node[4].core_layer 	interests[4] 	28806356
scalar abilene_nodelay_network.node[4].core_layer 	repo_load[4] 	6316155
scalar abilene_nodelay_network.node[4].core_layer 	data[4] 	9934228
scalar abilene_nodelay_network.node[4].core_layer 	slots_sent[face$o[1]->client[4]] 	14207504866
scalar abilene_nodelay_network.node[4].core_layer 	slots_sent[face$o[2]->node[3]] 	1209806300
scalar abilene_nodelay_network.node[4].core_layer 	slots_sent[face$o[3]->node[5]] 	770965049
scalar abilene_nodelay_network.node[4].content_store 	p_hit[4] 	0.4358750895115
scalar abilene_nodelay_network.node[4].content_store 	hits[4] 	12555973
scalar abilene_nodelay_network.node[4].content_store 	misses[4] 	16250383
scalar abilene_nodelay_network.node[4].content_store 	decision_yes[4] 	9934228
scalar abilene_nodelay_network.node[4].content_store 	decision_no[4] 	6316155
scalar abilene_nodelay_network.node[4].content_store 	decision_ratio[4] 	0.61132269928653
scalar abilene_nodelay_network.node[4].content_store 	"representation_breakdown[4] 0x7fffa19d4648:0x7fffa19d4648:0x7fffa19d4648:0x7fffa19d4648:0x7fffa19d4648:" 	0
scalar abilene_nodelay_network.node[4].proactive_component 	hdistance[4].proactive_component 	1.9694763589552
scalar abilene_nodelay_network.node[4].proactive_component 	downloads[4].proactive_component 	1426206
scalar abilene_nodelay_network.node[4].proactive_component 	avg_time[4].proactive_component 	0
scalar abilene_nodelay_network.node[5].core_layer 	interests[5] 	24534339
scalar abilene_nodelay_network.node[5].core_layer 	repo_load[5] 	5917555
scalar abilene_nodelay_network.node[5].core_layer 	data[5] 	6295610
scalar abilene_nodelay_network.node[5].core_layer 	slots_sent[face$o[1]->client[5]] 	14399711912
scalar abilene_nodelay_network.node[5].core_layer 	slots_sent[face$o[2]->node[4]] 	648909228
scalar abilene_nodelay_network.node[5].core_layer 	slots_sent[face$o[3]->node[6]] 	471312331
scalar abilene_nodelay_network.node[5].content_store 	p_hit[5] 	0.50220118014999
scalar abilene_nodelay_network.node[5].content_store 	hits[5] 	12321174
scalar abilene_nodelay_network.node[5].content_store 	misses[5] 	12213165
scalar abilene_nodelay_network.node[5].content_store 	decision_yes[5] 	6295610
scalar abilene_nodelay_network.node[5].content_store 	decision_no[5] 	5917555
scalar abilene_nodelay_network.node[5].content_store 	decision_ratio[5] 	0.51547735578779
scalar abilene_nodelay_network.node[5].content_store 	"representation_breakdown[5] 0x7fffa19d4648:0x7fffa19d4648:0x7fffa19d4648:0x7fffa19d4648:0x7fffa19d4648:" 	0
scalar abilene_nodelay_network.node[5].proactive_component 	hdistance[5].proactive_component 	1.9674658674025
scalar abilene_nodelay_network.node[5].proactive_component 	downloads[5].proactive_component 	1051634
scalar abilene_nodelay_network.node[5].proactive_component 	avg_time[5].proactive_component 	0
scalar abilene_nodelay_network.node[6].core_layer 	interests[6] 	26630994
scalar abilene_nodelay_network.node[6].core_layer 	repo_load[6] 	6726533
scalar abilene_nodelay_network.node[6].core_layer 	data[6] 	8168251
scalar abilene_nodelay_network.node[6].core_layer 	slots_sent[face$o[1]->client[6]] 	13547999431
scalar abilene_nodelay_network.node[6].core_layer 	slots_sent[face$o[2]->node[5]] 	532830938
scalar abilene_nodelay_network.node[6].core_layer 	slots_sent[face$o[3]->node[7]] 	1001974081
scalar abilene_nodelay_network.node[6].content_store 	p_hit[6] 	0.4406974069387
scalar abilene_nodelay_network.node[6].content_store 	hits[6] 	11736210
scalar abilene_nodelay_network.node[6].content_store 	misses[6] 	14894784
scalar abilene_nodelay_network.node[6].content_store 	decision_yes[6] 	8168251
scalar abilene_nodelay_network.node[6].content_store 	decision_no[6] 	6726533
scalar abilene_nodelay_network.node[6].content_store 	decision_ratio[6] 	0.54839674076509
scalar abilene_nodelay_network.node[6].content_store 	"representation_breakdown[6] 0x7fffa19d4648:0x7fffa19d4648:0x7fffa19d4648:0x7fffa19d4648:0x7fffa19d4648:" 	0
scalar abilene_nodelay_network.node[6].proactive_component 	hdistance[6].proactive_component 	1.9607430727169
scalar abilene_nodelay_network.node[6].proactive_component 	downloads[6].proactive_component 	1255651
scalar abilene_nodelay_network.node[6].proactive_component 	avg_time[6].proactive_component 	0
scalar abilene_nodelay_network.node[7].core_layer 	interests[7] 	33640976
scalar abilene_nodelay_network.node[7].core_layer 	repo_load[7] 	6558590
scalar abilene_nodelay_network.node[7].core_layer 	data[7] 	13726983
scalar abilene_nodelay_network.node[7].core_layer 	slots_sent[face$o[1]->client[7]] 	14338561735
scalar abilene_nodelay_network.node[7].core_layer 	slots_sent[face$o[2]->node[3]] 	900545820
scalar abilene_nodelay_network.node[7].core_layer 	slots_sent[face$o[3]->node[6]] 	1221713326
scalar abilene_nodelay_network.node[7].core_layer 	slots_sent[face$o[4]->node[8]] 	825804438
scalar abilene_nodelay_network.node[7].content_store 	p_hit[7] 	0.39699808352766
scalar abilene_nodelay_network.node[7].content_store 	hits[7] 	13355403
scalar abilene_nodelay_network.node[7].content_store 	misses[7] 	20285573
scalar abilene_nodelay_network.node[7].content_store 	decision_yes[7] 	13726983
scalar abilene_nodelay_network.node[7].content_store 	decision_no[7] 	6558590
scalar abilene_nodelay_network.node[7].content_store 	decision_ratio[7] 	0.67668697354519
scalar abilene_nodelay_network.node[7].content_store 	"representation_breakdown[7] 0x7fffa19d4648:0x7fffa19d4648:0x7fffa19d4648:0x7fffa19d4648:0x7fffa19d4648:" 	0
scalar abilene_nodelay_network.node[7].proactive_component 	hdistance[7].proactive_component 	1.8930699041925
scalar abilene_nodelay_network.node[7].proactive_component 	downloads[7].proactive_component 	1985961
scalar abilene_nodelay_network.node[7].proactive_component 	avg_time[7].proactive_component 	0
scalar abilene_nodelay_network.node[8].core_layer 	interests[8] 	32638839
scalar abilene_nodelay_network.node[8].core_layer 	repo_load[8] 	6751945
scalar abilene_nodelay_network.node[8].core_layer 	data[8] 	12839605
scalar abilene_nodelay_network.node[8].core_layer 	slots_sent[face$o[1]->client[8]] 	14193518087
scalar abilene_nodelay_network.node[8].core_layer 	slots_sent[face$o[2]->node[2]] 	826501851
scalar abilene_nodelay_network.node[8].core_layer 	slots_sent[face$o[3]->node[7]] 	826212633
scalar abilene_nodelay_network.node[8].core_layer 	slots_sent[face$o[4]->node[9]] 	1089451280
scalar abilene_nodelay_network.node[8].content_store 	p_hit[8] 	0.39974733782657
scalar abilene_nodelay_network.node[8].content_store 	hits[8] 	13047289
scalar abilene_nodelay_network.node[8].content_store 	misses[8] 	19591550
scalar abilene_nodelay_network.node[8].content_store 	decision_yes[8] 	12839605
scalar abilene_nodelay_network.node[8].content_store 	decision_no[8] 	6751945
scalar abilene_nodelay_network.node[8].content_store 	decision_ratio[8] 	0.65536443007317
scalar abilene_nodelay_network.node[8].content_store 	"representation_breakdown[8] 0x7fffa19d4648:0x7fffa19d4648:0x7fffa19d4648:0x7fffa19d4648:0x7fffa19d4648:" 	0
scalar abilene_nodelay_network.node[8].proactive_component 	hdistance[8].proactive_component 	1.8870371048482
scalar abilene_nodelay_network.node[8].proactive_component 	downloads[8].proactive_component 	1857008
scalar abilene_nodelay_network.node[8].proactive_component 	avg_time[8].proactive_component 	0
scalar abilene_nodelay_network.node[9].core_layer 	interests[9] 	26700242
scalar abilene_nodelay_network.node[9].core_layer 	repo_load[9] 	6313833
scalar abilene_nodelay_network.node[9].core_layer 	data[9] 	8176081
scalar abilene_nodelay_network.node[9].core_layer 	slots_sent[face$o[1]->client[9]] 	14035004073
scalar abilene_nodelay_network.node[9].core_layer 	slots_sent[face$o[2]->node[10]] 	633699426
scalar abilene_nodelay_network.node[9].core_layer 	slots_sent[face$o[3]->node[8]] 	931666290
scalar abilene_nodelay_network.node[9].content_store 	p_hit[9] 	0.4573115105099
scalar abilene_nodelay_network.node[9].content_store 	hits[9] 	12210328
scalar abilene_nodelay_network.node[9].content_store 	misses[9] 	14489914
scalar abilene_nodelay_network.node[9].content_store 	decision_yes[9] 	8176081
scalar abilene_nodelay_network.node[9].content_store 	decision_no[9] 	6313833
scalar abilene_nodelay_network.node[9].content_store 	decision_ratio[9] 	0.56426014674759
scalar abilene_nodelay_network.node[9].content_store 	"representation_breakdown[9] 0x7fffa19d4648:0x7fffa19d4648:0x7fffa19d4648:0x7fffa19d4648:0x7fffa19d4648:" 	0
scalar abilene_nodelay_network.node[9].proactive_component 	hdistance[9].proactive_component 	1.9317018494903
scalar abilene_nodelay_network.node[9].proactive_component 	downloads[9].proactive_component 	1243694
scalar abilene_nodelay_network.node[9].proactive_component 	avg_time[9].proactive_component 	0
scalar abilene_nodelay_network.node[10].core_layer 	interests[10] 	26048939
scalar abilene_nodelay_network.node[10].core_layer 	repo_load[10] 	6398536
scalar abilene_nodelay_network.node[10].core_layer 	data[10] 	7288280
scalar abilene_nodelay_network.node[10].core_layer 	slots_sent[face$o[1]->client[10]] 	14240287060
scalar abilene_nodelay_network.node[10].core_layer 	slots_sent[face$o[2]->node[0]] 	215756471
scalar abilene_nodelay_network.node[10].core_layer 	slots_sent[face$o[3]->node[1]] 	589899994
scalar abilene_nodelay_network.node[10].core_layer 	slots_sent[face$o[4]->node[9]] 	576137230
scalar abilene_nodelay_network.node[10].content_store 	p_hit[10] 	0.47457299508437
scalar abilene_nodelay_network.node[10].content_store 	hits[10] 	12362123
scalar abilene_nodelay_network.node[10].content_store 	misses[10] 	13686816
scalar abilene_nodelay_network.node[10].content_store 	decision_yes[10] 	7288280
scalar abilene_nodelay_network.node[10].content_store 	decision_no[10] 	6398536
scalar abilene_nodelay_network.node[10].content_store 	decision_ratio[10] 	0.53250368822084
scalar abilene_nodelay_network.node[10].content_store 	"representation_breakdown[10] 0x7fffa19d4648:0x7fffa19d4648:0x7fffa19d4648:0x7fffa19d4648:0x7fffa19d4648:" 	0
scalar abilene_nodelay_network.node[10].proactive_component 	hdistance[10].proactive_component 	1.9243521265752
scalar abilene_nodelay_network.node[10].proactive_component 	downloads[10].proactive_component 	1233227
scalar abilene_nodelay_network.node[10].proactive_component 	avg_time[10].proactive_component 	0
scalar abilene_nodelay_network.client[0] 	hdistance[0].real 	1.0097019644187
scalar abilene_nodelay_network.client[0] 	downloads[0].real 	17997180
scalar abilene_nodelay_network.client[0] 	avg_time[0].real 	0
scalar abilene_nodelay_network.client[1] 	hdistance[1].real 	0.90215940022295
scalar abilene_nodelay_network.client[1] 	downloads[1].real 	18002823
scalar abilene_nodelay_network.client[1] 	avg_time[1].real 	0
scalar abilene_nodelay_network.client[2] 	hdistance[2].real 	0.77770233398866
scalar abilene_nodelay_network.client[2] 	downloads[2].real 	17989847
scalar abilene_nodelay_network.client[2] 	avg_time[2].real 	0
scalar abilene_nodelay_network.client[3] 	hdistance[3].real 	0.80413850849894
scalar abilene_nodelay_network.client[3] 	downloads[3].real 	18004989
scalar abilene_nodelay_network.client[3] 	avg_time[3].real 	0
scalar abilene_nodelay_network.client[4] 	hdistance[4].real 	0.92547479000117
scalar abilene_nodelay_network.client[4] 	downloads[4].real 	18006645
scalar abilene_nodelay_network.client[4] 	avg_time[4].real 	0
scalar abilene_nodelay_network.client[5] 	hdistance[5].real 	1.0044248050684
scalar abilene_nodelay_network.client[5] 	downloads[5].real 	17996951
scalar abilene_nodelay_network.client[5] 	avg_time[5].real 	0
scalar abilene_nodelay_network.client[6] 	hdistance[6].real 	0.98302189393039
scalar abilene_nodelay_network.client[6] 	downloads[6].real 	18004305
scalar abilene_nodelay_network.client[6] 	avg_time[6].real 	0
scalar abilene_nodelay_network.client[7] 	hdistance[7].real 	0.79778826917095
scalar abilene_nodelay_network.client[7] 	downloads[7].real 	17997398
scalar abilene_nodelay_network.client[7] 	avg_time[7].real 	0
scalar abilene_nodelay_network.client[8] 	hdistance[8].real 	0.78363782534754
scalar abilene_nodelay_network.client[8] 	downloads[8].real 	17998830
scalar abilene_nodelay_network.client[8] 	avg_time[8].real 	0
scalar abilene_nodelay_network.client[9] 	hdistance[9].real 	0.89703098328994
scalar abilene_nodelay_network.client[9] 	downloads[9].real 	18002930
scalar abilene_nodelay_network.client[9] 	avg_time[9].real 	0
scalar abilene_nodelay_network.client[10] 	hdistance[10].real 	0.91975233154548
scalar abilene_nodelay_network.client[10] 	downloads[10].real 	17998255
scalar abilene_nodelay_network.client[10] 	avg_time[10].real 	0
