version 2
run General-18-20150311-18:38:21-22297
attr D costaware0.01
attr F nrr
attr R lru
attr a 1
attr configname General
attr csize 1e3
attr ctlg 1e5
attr datetime 20150311-18:38:21
attr experiment General
attr inifile omnetpp.ini
attr iterationvars "$rep=5, $net=geant_cost, $lambda=100, $a=1, $ctlg=1e5, $F=nrr, $ttl=10, $D=costaware0.01, $R=lru, $csize=1e3, $window=60, $variance=0.05, $mytime=1800, $kappa=1, $priceratiovalue=10, $pricebits=0"
attr iterationvars2 "$rep=5, $net=geant_cost, $lambda=100, $a=1, $ctlg=1e5, $F=nrr, $ttl=10, $D=costaware0.01, $R=lru, $csize=1e3, $window=60, $variance=0.05, $mytime=1800, $kappa=1, $priceratiovalue=10, $pricebits=0, $repetition=0"
attr kappa 1
attr lambda 100
attr measurement "$rep=5, $net=geant_cost, $lambda=100, $a=1, $ctlg=1e5, $F=nrr, $ttl=10, $D=costaware0.01, $R=lru, $csize=1e3, $window=60, $variance=0.05, $mytime=1800, $kappa=1, $priceratiovalue=10, $pricebits=0"
attr mytime 1800
attr net geant_cost
attr network networks.${net=geant_cost}_network
attr pricebits 0
attr priceratiovalue 10
attr processid 22297
attr rep 5
attr repetition 0
attr replication #0
attr resultdir results
attr runnumber 18
attr seedset 5
attr ttl 10
attr variance 0.05
attr window 60

scalar . 	a 	1
scalar . 	csize 	1e3
scalar . 	ctlg 	1e5
scalar . 	kappa 	1
scalar . 	lambda 	100
scalar . 	mytime 	1800
scalar . 	pricebits 	0
scalar . 	priceratiovalue 	10
scalar . 	rep 	5
scalar . 	ttl 	10
scalar . 	variance 	0.05
scalar . 	window 	60
scalar geant_cost_network.content_distribution 	repo-0 	18
scalar geant_cost_network.content_distribution 	repo-1 	6
scalar geant_cost_network.content_distribution 	repo-2 	9
scalar geant_cost_network.content_distribution 	client-0 	9
scalar geant_cost_network.content_distribution 	client-1 	14
scalar geant_cost_network.content_distribution 	client-2 	5
scalar geant_cost_network.content_distribution 	client-3 	1
scalar geant_cost_network.content_distribution 	client-4 	4
scalar geant_cost_network.content_distribution 	client-5 	0
scalar geant_cost_network.content_distribution 	client-6 	16
scalar geant_cost_network.content_distribution 	client-7 	18
scalar geant_cost_network.content_distribution 	client-8 	20
scalar geant_cost_network.content_distribution 	client-9 	10
scalar geant_cost_network.content_distribution 	client-10 	2
scalar geant_cost_network.content_distribution 	client-11 	13
scalar geant_cost_network.content_distribution 	client-12 	12
scalar geant_cost_network.content_distribution 	client-13 	19
scalar geant_cost_network.content_distribution 	client-14 	8
scalar geant_cost_network.content_distribution 	client-15 	17
scalar geant_cost_network.content_distribution 	client-16 	15
scalar geant_cost_network.content_distribution 	client-17 	7
scalar geant_cost_network.content_distribution 	client-18 	21
scalar geant_cost_network.content_distribution 	client-19 	11
scalar geant_cost_network.content_distribution 	client-20 	6
scalar geant_cost_network.content_distribution 	client-21 	3
scalar geant_cost_network.content_distribution 	repo-0_card 	33097
scalar geant_cost_network.content_distribution 	repo-0_price 	0
scalar geant_cost_network.content_distribution 	repo-1_card 	33495
scalar geant_cost_network.content_distribution 	repo-1_price 	1
scalar geant_cost_network.content_distribution 	repo-2_card 	33408
scalar geant_cost_network.content_distribution 	repo-2_price 	10
scalar geant_cost_network.statistics 	repo_popularity[0] 	0.30973992126081
scalar geant_cost_network.statistics 	repo_popularity[1] 	0.27405079180057
scalar geant_cost_network.statistics 	repo_popularity[2] 	0.41620928693864
scalar geant_cost_network.statistics 	stabilization_time 	193.5
scalar geant_cost_network.statistics 	p_hit 	0.11345145579992
scalar geant_cost_network.statistics 	interests 	582354
scalar geant_cost_network.statistics 	data 	402310.27272727
scalar geant_cost_network.statistics 	hdistance 	2.9252964819173
scalar geant_cost_network.statistics 	avg_time 	0.015417319828
scalar geant_cost_network.statistics 	downloads 	3903925
scalar geant_cost_network.statistics 	total_cost 	6032989
scalar geant_cost_network.statistics 	total_replicas 	100000
scalar geant_cost_network.statistics 	inner_hit 	0.39921002580736
scalar geant_cost_network.statistics 	interests_sent 	3960937
scalar geant_cost_network.node[0].core_layer 	interests[0] 	209627
scalar geant_cost_network.node[0].core_layer 	data[0] 	179905
scalar geant_cost_network.node[0].core_layer 	repo_int[0] 	2345439
scalar geant_cost_network.node[0].content_store 	p_hit[0] 	0.10017316471638
scalar geant_cost_network.node[0].content_store 	hits[0] 	20999
scalar geant_cost_network.node[0].content_store 	misses[0] 	188628
scalar geant_cost_network.node[0].content_store 	decision_yes[0] 	633
scalar geant_cost_network.node[0].content_store 	decision_no[0] 	179272
scalar geant_cost_network.node[0].content_store 	decision_ratio[0] 	0.0035185236652678
scalar geant_cost_network.node[0].content_store 	cache_value[0] 	1.0017909869199
scalar geant_cost_network.node[0].content_store 	average_price_of_cache[0] 	7.8478260869565
scalar geant_cost_network.node[0].content_store 	correction_factor[0] 	0.0027225701061802
scalar geant_cost_network.node[0].content_store 	kappa[0] 	1
scalar geant_cost_network.node[1].core_layer 	interests[1] 	377620
scalar geant_cost_network.node[1].core_layer 	data[1] 	334119
scalar geant_cost_network.node[1].content_store 	p_hit[1] 	0.1049970870187
scalar geant_cost_network.node[1].content_store 	hits[1] 	39649
scalar geant_cost_network.node[1].content_store 	misses[1] 	337971
scalar geant_cost_network.node[1].content_store 	decision_yes[1] 	1457
scalar geant_cost_network.node[1].content_store 	decision_no[1] 	332660
scalar geant_cost_network.node[1].content_store 	decision_ratio[1] 	0.0043607478817301
scalar geant_cost_network.node[1].content_store 	cache_value[1] 	1.019788541123
scalar geant_cost_network.node[1].content_store 	average_price_of_cache[1] 	7.0652173913043
scalar geant_cost_network.node[1].content_store 	correction_factor[1] 	0.0027225701061802
scalar geant_cost_network.node[1].content_store 	kappa[1] 	1
scalar geant_cost_network.node[2].core_layer 	interests[2] 	196599
scalar geant_cost_network.node[2].core_layer 	data[2] 	176320
scalar geant_cost_network.node[2].content_store 	p_hit[2] 	0.088143886794948
scalar geant_cost_network.node[2].content_store 	hits[2] 	17329
scalar geant_cost_network.node[2].content_store 	misses[2] 	179270
scalar geant_cost_network.node[2].content_store 	decision_yes[2] 	709
scalar geant_cost_network.node[2].content_store 	decision_no[2] 	175611
scalar geant_cost_network.node[2].content_store 	decision_ratio[2] 	0.0040210980036298
scalar geant_cost_network.node[2].content_store 	cache_value[2] 	0.58392898996215
scalar geant_cost_network.node[2].content_store 	average_price_of_cache[2] 	7.6521739130435
scalar geant_cost_network.node[2].content_store 	correction_factor[2] 	0.0027225701061802
scalar geant_cost_network.node[2].content_store 	kappa[2] 	1
scalar geant_cost_network.node[3].core_layer 	interests[3] 	1019908
scalar geant_cost_network.node[3].core_layer 	data[3] 	935152
scalar geant_cost_network.node[3].content_store 	p_hit[3] 	0.070443608639211
scalar geant_cost_network.node[3].content_store 	hits[3] 	71846
scalar geant_cost_network.node[3].content_store 	misses[3] 	948062
scalar geant_cost_network.node[3].content_store 	decision_yes[3] 	3427
scalar geant_cost_network.node[3].content_store 	decision_no[3] 	931724
scalar geant_cost_network.node[3].content_store 	decision_ratio[3] 	0.0036646488107268
scalar geant_cost_network.node[3].content_store 	cache_value[3] 	1.3035602975011
scalar geant_cost_network.node[3].content_store 	average_price_of_cache[3] 	6.8695652173913
scalar geant_cost_network.node[3].content_store 	correction_factor[3] 	0.0027225701061802
scalar geant_cost_network.node[3].content_store 	kappa[3] 	1
scalar geant_cost_network.node[4].core_layer 	interests[4] 	1178251
scalar geant_cost_network.node[4].core_layer 	data[4] 	1122268
scalar geant_cost_network.node[4].content_store 	p_hit[4] 	0.027643515685537
scalar geant_cost_network.node[4].content_store 	hits[4] 	32571
scalar geant_cost_network.node[4].content_store 	misses[4] 	1145680
scalar geant_cost_network.node[4].content_store 	decision_yes[4] 	3125
scalar geant_cost_network.node[4].content_store 	decision_no[4] 	1119143
scalar geant_cost_network.node[4].content_store 	decision_ratio[4] 	0.0027845398781753
scalar geant_cost_network.node[4].content_store 	cache_value[4] 	1.2856707384652
scalar geant_cost_network.node[4].content_store 	average_price_of_cache[4] 	9.804347826087
scalar geant_cost_network.node[4].content_store 	correction_factor[4] 	0.0027225701061802
scalar geant_cost_network.node[4].content_store 	kappa[4] 	1
scalar geant_cost_network.node[5].core_layer 	interests[5] 	760610
scalar geant_cost_network.node[5].core_layer 	data[5] 	702866
scalar geant_cost_network.node[5].content_store 	p_hit[5] 	0.06858574039258
scalar geant_cost_network.node[5].content_store 	hits[5] 	52167
scalar geant_cost_network.node[5].content_store 	misses[5] 	708443
scalar geant_cost_network.node[5].content_store 	decision_yes[5] 	1728
scalar geant_cost_network.node[5].content_store 	decision_no[5] 	701138
scalar geant_cost_network.node[5].content_store 	decision_ratio[5] 	0.0024585056041977
scalar geant_cost_network.node[5].content_store 	cache_value[5] 	0.22988254234827
scalar geant_cost_network.node[5].content_store 	average_price_of_cache[5] 	2.1739130434783
scalar geant_cost_network.node[5].content_store 	correction_factor[5] 	0.0027225701061802
scalar geant_cost_network.node[5].content_store 	kappa[5] 	1
scalar geant_cost_network.node[6].core_layer 	interests[6] 	930605
scalar geant_cost_network.node[6].core_layer 	repo_load[6] 	604959
scalar geant_cost_network.node[6].core_layer 	data[6] 	141469
scalar geant_cost_network.node[6].content_store 	p_hit[6] 	0.19592523143546
scalar geant_cost_network.node[6].content_store 	hits[6] 	182329
scalar geant_cost_network.node[6].content_store 	misses[6] 	748276
scalar geant_cost_network.node[6].content_store 	decision_yes[6] 	2255
scalar geant_cost_network.node[6].content_store 	decision_no[6] 	744173
scalar geant_cost_network.node[6].content_store 	decision_ratio[6] 	0.0030210549443483
scalar geant_cost_network.node[6].content_store 	cache_value[6] 	0.90154072206742
scalar geant_cost_network.node[6].content_store 	average_price_of_cache[6] 	1.5869565217391
scalar geant_cost_network.node[6].content_store 	correction_factor[6] 	0.0027225701061802
scalar geant_cost_network.node[6].content_store 	kappa[6] 	1
scalar geant_cost_network.node[7].core_layer 	interests[7] 	821412
scalar geant_cost_network.node[7].core_layer 	data[7] 	719169
scalar geant_cost_network.node[7].content_store 	p_hit[7] 	0.1136104658807
scalar geant_cost_network.node[7].content_store 	hits[7] 	93321
scalar geant_cost_network.node[7].content_store 	misses[7] 	728091
scalar geant_cost_network.node[7].content_store 	decision_yes[7] 	4638
scalar geant_cost_network.node[7].content_store 	decision_no[7] 	714531
scalar geant_cost_network.node[7].content_store 	decision_ratio[7] 	0.006449110014475
scalar geant_cost_network.node[7].content_store 	cache_value[7] 	5.6739811582065
scalar geant_cost_network.node[7].content_store 	average_price_of_cache[7] 	8.0434782608696
scalar geant_cost_network.node[7].content_store 	correction_factor[7] 	0.0027225701061802
scalar geant_cost_network.node[7].content_store 	kappa[7] 	1
scalar geant_cost_network.node[8].core_layer 	interests[8] 	599235
scalar geant_cost_network.node[8].core_layer 	data[8] 	458535
scalar geant_cost_network.node[8].content_store 	p_hit[8] 	0.23331581099235
scalar geant_cost_network.node[8].content_store 	hits[8] 	139811
scalar geant_cost_network.node[8].content_store 	misses[8] 	459424
scalar geant_cost_network.node[8].content_store 	decision_yes[8] 	5492
scalar geant_cost_network.node[8].content_store 	decision_no[8] 	453043
scalar geant_cost_network.node[8].content_store 	decision_ratio[8] 	0.011977275453346
scalar geant_cost_network.node[8].content_store 	cache_value[8] 	12.846079871559
scalar geant_cost_network.node[8].content_store 	average_price_of_cache[8] 	8.6304347826087
scalar geant_cost_network.node[8].content_store 	correction_factor[8] 	0.0027225701061802
scalar geant_cost_network.node[8].content_store 	kappa[8] 	1
scalar geant_cost_network.node[9].core_layer 	interests[9] 	1138537
scalar geant_cost_network.node[9].core_layer 	repo_load[9] 	542803
scalar geant_cost_network.node[9].core_layer 	data[9] 	213412
scalar geant_cost_network.node[9].content_store 	p_hit[9] 	0.33493509653178
scalar geant_cost_network.node[9].content_store 	hits[9] 	381336
scalar geant_cost_network.node[9].content_store 	misses[9] 	757201
scalar geant_cost_network.node[9].content_store 	decision_yes[9] 	14892
scalar geant_cost_network.node[9].content_store 	decision_no[9] 	741323
scalar geant_cost_network.node[9].content_store 	decision_ratio[9] 	0.019692812229326
scalar geant_cost_network.node[9].content_store 	cache_value[9] 	21.09512032908
scalar geant_cost_network.node[9].content_store 	average_price_of_cache[9] 	9.6086956521739
scalar geant_cost_network.node[9].content_store 	correction_factor[9] 	0.0027225701061802
scalar geant_cost_network.node[9].content_store 	kappa[9] 	1
scalar geant_cost_network.node[10].core_layer 	interests[10] 	244669
scalar geant_cost_network.node[10].core_layer 	data[10] 	220250
scalar geant_cost_network.node[10].content_store 	p_hit[10] 	0.094527708863812
scalar geant_cost_network.node[10].content_store 	hits[10] 	23128
scalar geant_cost_network.node[10].content_store 	misses[10] 	221541
scalar geant_cost_network.node[10].content_store 	decision_yes[10] 	1689
scalar geant_cost_network.node[10].content_store 	decision_no[10] 	218561
scalar geant_cost_network.node[10].content_store 	decision_ratio[10] 	0.0076685584562997
scalar geant_cost_network.node[10].content_store 	cache_value[10] 	8.5814872833143
scalar geant_cost_network.node[10].content_store 	average_price_of_cache[10] 	9.804347826087
scalar geant_cost_network.node[10].content_store 	correction_factor[10] 	0.0027225701061802
scalar geant_cost_network.node[10].content_store 	kappa[10] 	1
scalar geant_cost_network.node[11].core_layer 	interests[11] 	210499
scalar geant_cost_network.node[11].core_layer 	data[11] 	175748
scalar geant_cost_network.node[11].content_store 	p_hit[11] 	0.16115991049839
scalar geant_cost_network.node[11].content_store 	hits[11] 	33924
scalar geant_cost_network.node[11].content_store 	misses[11] 	176575
scalar geant_cost_network.node[11].content_store 	decision_yes[11] 	760
scalar geant_cost_network.node[11].content_store 	decision_no[11] 	174988
scalar geant_cost_network.node[11].content_store 	decision_ratio[11] 	0.004324373534834
scalar geant_cost_network.node[11].content_store 	cache_value[11] 	2.0127937359798
scalar geant_cost_network.node[11].content_store 	average_price_of_cache[11] 	8.6304347826087
scalar geant_cost_network.node[11].content_store 	correction_factor[11] 	0.0027225701061802
scalar geant_cost_network.node[11].content_store 	kappa[11] 	1
scalar geant_cost_network.node[12].core_layer 	interests[12] 	956960
scalar geant_cost_network.node[12].core_layer 	data[12] 	866244
scalar geant_cost_network.node[12].content_store 	p_hit[12] 	0.080521651897676
scalar geant_cost_network.node[12].content_store 	hits[12] 	77056
scalar geant_cost_network.node[12].content_store 	misses[12] 	879904
scalar geant_cost_network.node[12].content_store 	decision_yes[12] 	6884
scalar geant_cost_network.node[12].content_store 	decision_no[12] 	859358
scalar geant_cost_network.node[12].content_store 	decision_ratio[12] 	0.007946970938837
scalar geant_cost_network.node[12].content_store 	cache_value[12] 	3.4920093277112
scalar geant_cost_network.node[12].content_store 	average_price_of_cache[12] 	9.804347826087
scalar geant_cost_network.node[12].content_store 	correction_factor[12] 	0.0027225701061802
scalar geant_cost_network.node[12].content_store 	kappa[12] 	1
scalar geant_cost_network.node[13].core_layer 	interests[13] 	334048
scalar geant_cost_network.node[13].core_layer 	data[13] 	250752
scalar geant_cost_network.node[13].content_store 	p_hit[13] 	0.1993006993007
scalar geant_cost_network.node[13].content_store 	hits[13] 	66576
scalar geant_cost_network.node[13].content_store 	misses[13] 	267472
scalar geant_cost_network.node[13].content_store 	decision_yes[13] 	1966
scalar geant_cost_network.node[13].content_store 	decision_no[13] 	248786
scalar geant_cost_network.node[13].content_store 	decision_ratio[13] 	0.007840416028586
scalar geant_cost_network.node[13].content_store 	cache_value[13] 	4.845131994326
scalar geant_cost_network.node[13].content_store 	average_price_of_cache[13] 	9.804347826087
scalar geant_cost_network.node[13].content_store 	correction_factor[13] 	0.0027225701061802
scalar geant_cost_network.node[13].content_store 	kappa[13] 	1
scalar geant_cost_network.node[14].core_layer 	interests[14] 	786313
scalar geant_cost_network.node[14].core_layer 	data[14] 	685105
scalar geant_cost_network.node[14].content_store 	p_hit[14] 	0.095716336878571
scalar geant_cost_network.node[14].content_store 	hits[14] 	75263
scalar geant_cost_network.node[14].content_store 	misses[14] 	711050
scalar geant_cost_network.node[14].content_store 	decision_yes[14] 	1793
scalar geant_cost_network.node[14].content_store 	decision_no[14] 	683312
scalar geant_cost_network.node[14].content_store 	decision_ratio[14] 	0.0026171170842426
scalar geant_cost_network.node[14].content_store 	cache_value[14] 	1.3414371049832
scalar geant_cost_network.node[14].content_store 	average_price_of_cache[14] 	6.0869565217391
scalar geant_cost_network.node[14].content_store 	correction_factor[14] 	0.0027225701061802
scalar geant_cost_network.node[14].content_store 	kappa[14] 	1
scalar geant_cost_network.node[15].core_layer 	interests[15] 	303531
scalar geant_cost_network.node[15].core_layer 	data[15] 	262328
scalar geant_cost_network.node[15].content_store 	p_hit[15] 	0.12445186817821
scalar geant_cost_network.node[15].content_store 	hits[15] 	37775
scalar geant_cost_network.node[15].content_store 	misses[15] 	265756
scalar geant_cost_network.node[15].content_store 	decision_yes[15] 	1323
scalar geant_cost_network.node[15].content_store 	decision_no[15] 	261005
scalar geant_cost_network.node[15].content_store 	decision_ratio[15] 	0.0050433045652771
scalar geant_cost_network.node[15].content_store 	cache_value[15] 	1.2991405232232
scalar geant_cost_network.node[15].content_store 	average_price_of_cache[15] 	8.6304347826087
scalar geant_cost_network.node[15].content_store 	correction_factor[15] 	0.0027225701061802
scalar geant_cost_network.node[15].content_store 	kappa[15] 	1
scalar geant_cost_network.node[16].core_layer 	interests[16] 	195356
scalar geant_cost_network.node[16].core_layer 	data[16] 	169927
scalar geant_cost_network.node[16].content_store 	p_hit[16] 	0.084256434406929
scalar geant_cost_network.node[16].content_store 	hits[16] 	16460
scalar geant_cost_network.node[16].content_store 	misses[16] 	178896
scalar geant_cost_network.node[16].content_store 	decision_yes[16] 	730
scalar geant_cost_network.node[16].content_store 	decision_no[16] 	169197
scalar geant_cost_network.node[16].content_store 	decision_ratio[16] 	0.0042959623838472
scalar geant_cost_network.node[16].content_store 	cache_value[16] 	0.65143622294942
scalar geant_cost_network.node[16].content_store 	average_price_of_cache[16] 	7.6521739130435
scalar geant_cost_network.node[16].content_store 	correction_factor[16] 	0.0027225701061802
scalar geant_cost_network.node[16].content_store 	kappa[16] 	1
scalar geant_cost_network.node[17].core_layer 	interests[17] 	271266
scalar geant_cost_network.node[17].core_layer 	data[17] 	251776
scalar geant_cost_network.node[17].content_store 	p_hit[17] 	0.060656329949201
scalar geant_cost_network.node[17].content_store 	hits[17] 	16454
scalar geant_cost_network.node[17].content_store 	misses[17] 	254812
scalar geant_cost_network.node[17].content_store 	decision_yes[17] 	696
scalar geant_cost_network.node[17].content_store 	decision_no[17] 	251080
scalar geant_cost_network.node[17].content_store 	decision_ratio[17] 	0.002764361972547
scalar geant_cost_network.node[17].content_store 	cache_value[17] 	0.48705043384807
scalar geant_cost_network.node[17].content_store 	average_price_of_cache[17] 	8.6304347826087
scalar geant_cost_network.node[17].content_store 	correction_factor[17] 	0.0027225701061802
scalar geant_cost_network.node[17].content_store 	kappa[17] 	1
scalar geant_cost_network.node[18].core_layer 	interests[18] 	1592298
scalar geant_cost_network.node[18].core_layer 	repo_load[18] 	1197677
scalar geant_cost_network.node[18].core_layer 	data[18] 	360724
scalar geant_cost_network.node[18].content_store 	p_hit[18] 	0.014525547353573
scalar geant_cost_network.node[18].content_store 	hits[18] 	23129
scalar geant_cost_network.node[18].content_store 	misses[18] 	1569169
scalar geant_cost_network.node[18].content_store 	decision_yes[18] 	2028
scalar geant_cost_network.node[18].content_store 	decision_no[18] 	1556373
scalar geant_cost_network.node[18].content_store 	decision_ratio[18] 	0.0013013338672139
scalar geant_cost_network.node[18].content_store 	cache_value[18] 	0.65889416828762
scalar geant_cost_network.node[18].content_store 	average_price_of_cache[18] 	7.0652173913043
scalar geant_cost_network.node[18].content_store 	correction_factor[18] 	0.0027225701061802
scalar geant_cost_network.node[18].content_store 	kappa[18] 	1
scalar geant_cost_network.node[19].core_layer 	interests[19] 	194002
scalar geant_cost_network.node[19].core_layer 	data[19] 	176296
scalar geant_cost_network.node[19].content_store 	p_hit[19] 	0.080359996288698
scalar geant_cost_network.node[19].content_store 	hits[19] 	15590
scalar geant_cost_network.node[19].content_store 	misses[19] 	178412
scalar geant_cost_network.node[19].content_store 	decision_yes[19] 	661
scalar geant_cost_network.node[19].content_store 	decision_no[19] 	175635
scalar geant_cost_network.node[19].content_store 	decision_ratio[19] 	0.0037493760493715
scalar geant_cost_network.node[19].content_store 	cache_value[19] 	0.74245594092534
scalar geant_cost_network.node[19].content_store 	average_price_of_cache[19] 	8.4347826086957
scalar geant_cost_network.node[19].content_store 	correction_factor[19] 	0.0027225701061802
scalar geant_cost_network.node[19].content_store 	kappa[19] 	1
scalar geant_cost_network.node[20].core_layer 	interests[20] 	202018
scalar geant_cost_network.node[20].core_layer 	data[20] 	180916
scalar geant_cost_network.node[20].content_store 	p_hit[20] 	0.094501480066133
scalar geant_cost_network.node[20].content_store 	hits[20] 	19091
scalar geant_cost_network.node[20].content_store 	misses[20] 	182927
scalar geant_cost_network.node[20].content_store 	decision_yes[20] 	680
scalar geant_cost_network.node[20].content_store 	decision_no[20] 	180236
scalar geant_cost_network.node[20].content_store 	decision_ratio[20] 	0.0037586504234009
scalar geant_cost_network.node[20].content_store 	cache_value[20] 	0.52381213959916
scalar geant_cost_network.node[20].content_store 	average_price_of_cache[20] 	7.6521739130435
scalar geant_cost_network.node[20].content_store 	correction_factor[20] 	0.0027225701061802
scalar geant_cost_network.node[20].content_store 	kappa[20] 	1
scalar geant_cost_network.node[21].core_layer 	interests[21] 	288424
scalar geant_cost_network.node[21].core_layer 	data[21] 	267545
scalar geant_cost_network.node[21].content_store 	p_hit[21] 	0.061409591434832
scalar geant_cost_network.node[21].content_store 	hits[21] 	17712
scalar geant_cost_network.node[21].content_store 	misses[21] 	270712
scalar geant_cost_network.node[21].content_store 	decision_yes[21] 	666
scalar geant_cost_network.node[21].content_store 	decision_no[21] 	266879
scalar geant_cost_network.node[21].content_store 	decision_ratio[21] 	0.002489300865275
scalar geant_cost_network.node[21].content_store 	cache_value[21] 	0.49023530550945
scalar geant_cost_network.node[21].content_store 	average_price_of_cache[21] 	8.0434782608696
scalar geant_cost_network.node[21].content_store 	correction_factor[21] 	0.0027225701061802
scalar geant_cost_network.node[21].content_store 	kappa[21] 	1
scalar geant_cost_network.client[0] 	hdistance[0] 	3.889640439366
scalar geant_cost_network.client[0] 	downloads[0] 	171793
scalar geant_cost_network.client[0] 	avg_time[0] 	0.054925641616
scalar geant_cost_network.client[0] 	interests_sent[0] 	180406
scalar geant_cost_network.client[1] 	hdistance[1] 	3.0278733326225
scalar geant_cost_network.client[1] 	downloads[1] 	178199
scalar geant_cost_network.client[1] 	avg_time[1] 	0.013371653002
scalar geant_cost_network.client[1] 	interests_sent[1] 	180181
scalar geant_cost_network.client[2] 	hdistance[2] 	3.4209053887892
scalar geant_cost_network.client[2] 	downloads[2] 	177294
scalar geant_cost_network.client[2] 	avg_time[2] 	0.018801808622
scalar geant_cost_network.client[2] 	interests_sent[2] 	180244
scalar geant_cost_network.client[3] 	hdistance[3] 	2.4747378775346
scalar geant_cost_network.client[3] 	downloads[3] 	178924
scalar geant_cost_network.client[3] 	avg_time[3] 	0.007739935112
scalar geant_cost_network.client[3] 	interests_sent[3] 	179930
scalar geant_cost_network.client[4] 	hdistance[4] 	2.3468633453938
scalar geant_cost_network.client[4] 	downloads[4] 	179650
scalar geant_cost_network.client[4] 	avg_time[4] 	0.005717524128
scalar geant_cost_network.client[4] 	interests_sent[4] 	180412
scalar geant_cost_network.client[5] 	hdistance[5] 	2.5782898093994
scalar geant_cost_network.client[5] 	downloads[5] 	178331
scalar geant_cost_network.client[5] 	avg_time[5] 	0.010550600276
scalar geant_cost_network.client[5] 	interests_sent[5] 	180495
scalar geant_cost_network.client[6] 	hdistance[6] 	2.6152719793885
scalar geant_cost_network.client[6] 	downloads[6] 	178929
scalar geant_cost_network.client[6] 	avg_time[6] 	0.006944120565
scalar geant_cost_network.client[6] 	interests_sent[6] 	180146
scalar geant_cost_network.client[7] 	hdistance[7] 	2.1800976902984
scalar geant_cost_network.client[7] 	downloads[7] 	179547
scalar geant_cost_network.client[7] 	avg_time[7] 	0.004722520096
scalar geant_cost_network.client[7] 	interests_sent[7] 	179997
scalar geant_cost_network.client[8] 	hdistance[8] 	2.4595576355229
scalar geant_cost_network.client[8] 	downloads[8] 	179490
scalar geant_cost_network.client[8] 	avg_time[8] 	0.004757313262
scalar geant_cost_network.client[8] 	interests_sent[8] 	179796
scalar geant_cost_network.client[9] 	hdistance[9] 	2.6936842807283
scalar geant_cost_network.client[9] 	downloads[9] 	179932
scalar geant_cost_network.client[9] 	avg_time[9] 	0.005760010448
scalar geant_cost_network.client[9] 	interests_sent[9] 	180268
scalar geant_cost_network.client[10] 	hdistance[10] 	3.5695512963045
scalar geant_cost_network.client[10] 	downloads[10] 	179896
scalar geant_cost_network.client[10] 	avg_time[10] 	0.007594648311
scalar geant_cost_network.client[10] 	interests_sent[10] 	180605
scalar geant_cost_network.client[11] 	hdistance[11] 	3.5724796616049
scalar geant_cost_network.client[11] 	downloads[11] 	178726
scalar geant_cost_network.client[11] 	avg_time[11] 	0.010177820337
scalar geant_cost_network.client[11] 	interests_sent[11] 	179553
scalar geant_cost_network.client[12] 	hdistance[12] 	2.6529394946771
scalar geant_cost_network.client[12] 	downloads[12] 	178381
scalar geant_cost_network.client[12] 	avg_time[12] 	0.009641177828
scalar geant_cost_network.client[12] 	interests_sent[12] 	179176
scalar geant_cost_network.client[13] 	hdistance[13] 	2.6968991937101
scalar geant_cost_network.client[13] 	downloads[13] 	174503
scalar geant_cost_network.client[13] 	avg_time[13] 	0.042174540926
scalar geant_cost_network.client[13] 	interests_sent[13] 	181113
scalar geant_cost_network.client[14] 	hdistance[14] 	2.3995618215208
scalar geant_cost_network.client[14] 	downloads[14] 	172076
scalar geant_cost_network.client[14] 	avg_time[14] 	0.028449400095
scalar geant_cost_network.client[14] 	interests_sent[14] 	179889
scalar geant_cost_network.client[15] 	hdistance[15] 	2.6730826476453
scalar geant_cost_network.client[15] 	downloads[15] 	178045
scalar geant_cost_network.client[15] 	avg_time[15] 	0.01127128585
scalar geant_cost_network.client[15] 	interests_sent[15] 	179437
scalar geant_cost_network.client[16] 	hdistance[16] 	3.3515361153635
scalar geant_cost_network.client[16] 	downloads[16] 	171146
scalar geant_cost_network.client[16] 	avg_time[16] 	0.037703616429
scalar geant_cost_network.client[16] 	interests_sent[16] 	180115
scalar geant_cost_network.client[17] 	hdistance[17] 	2.9471487078096
scalar geant_cost_network.client[17] 	downloads[17] 	177025
scalar geant_cost_network.client[17] 	avg_time[17] 	0.014746742657
scalar geant_cost_network.client[17] 	interests_sent[17] 	179637
scalar geant_cost_network.client[18] 	hdistance[18] 	2.5682695287191
scalar geant_cost_network.client[18] 	downloads[18] 	177495
scalar geant_cost_network.client[18] 	avg_time[18] 	0.008828468621
scalar geant_cost_network.client[18] 	interests_sent[18] 	179212
scalar geant_cost_network.client[19] 	hdistance[19] 	3.5305798252581
scalar geant_cost_network.client[19] 	downloads[19] 	177519
scalar geant_cost_network.client[19] 	avg_time[19] 	0.010618699826
scalar geant_cost_network.client[19] 	interests_sent[19] 	179635
scalar geant_cost_network.client[20] 	hdistance[20] 	3.51071524845
scalar geant_cost_network.client[20] 	downloads[20] 	178064
scalar geant_cost_network.client[20] 	avg_time[20] 	0.011736364209
scalar geant_cost_network.client[20] 	interests_sent[20] 	180062
scalar geant_cost_network.client[21] 	hdistance[21] 	3.1968372820742
scalar geant_cost_network.client[21] 	downloads[21] 	178960
scalar geant_cost_network.client[21] 	avg_time[21] 	0.012947144016
scalar geant_cost_network.client[21] 	interests_sent[21] 	180628
