version 2
run General-496-20140511-17:17:41-19950
attr D costprobprodcorr0.01
attr F nrr
attr R lru
attr a 0
attr configname General
attr csize 1e3
attr ctlg 1e5
attr datetime 20140511-17:17:41
attr experiment General
attr inifile omnetpp.ini
attr iterationvars "$net=one_cache_scenario_3_links, $rep=4, $priceratiovalue=5, $weights=0.333_0.333_0.334, $a=0, $ctlg=1e5, $F=nrr, $ttl=1000, $D=costprobprodcorr0.01, $xi=0.25, $R=lru, $csize=1e3"
attr iterationvars2 "$net=one_cache_scenario_3_links, $rep=4, $priceratiovalue=5, $weights=0.333_0.333_0.334, $a=0, $ctlg=1e5, $F=nrr, $ttl=1000, $D=costprobprodcorr0.01, $xi=0.25, $R=lru, $csize=1e3, $repetition=0"
attr measurement "$net=one_cache_scenario_3_links, $rep=4, $priceratiovalue=5, $weights=0.333_0.333_0.334, $a=0, $ctlg=1e5, $F=nrr, $ttl=1000, $D=costprobprodcorr0.01, $xi=0.25, $R=lru, $csize=1e3"
attr net one_cache_scenario_3_links
attr network networks.${net=one_cache_scenario_3_links}_network
attr priceratiovalue 5
attr processid 19950
attr rep 4
attr repetition 0
attr replication #0
attr resultdir results
attr runnumber 496
attr seedset 4
attr ttl 1000
attr weights 0.333_0.333_0.334
attr xi 0.25

scalar . 	a 	0
scalar . 	csize 	1e3
scalar . 	ctlg 	1e5
scalar . 	priceratiovalue 	5
scalar . 	rep 	4
scalar . 	ttl 	1000
scalar . 	xi 	0.25
scalar one_cache_scenario_3_links_network.content_distribution 	repo-0 	4
scalar one_cache_scenario_3_links_network.content_distribution 	repo-1 	5
scalar one_cache_scenario_3_links_network.content_distribution 	repo-2 	6
scalar one_cache_scenario_3_links_network.content_distribution 	client-0 	0
scalar one_cache_scenario_3_links_network.content_distribution 	repo-0_card 	33272
scalar one_cache_scenario_3_links_network.content_distribution 	repo-1_card 	33152
scalar one_cache_scenario_3_links_network.content_distribution 	repo-2_card 	33576
scalar one_cache_scenario_3_links_network.statistics 	p_hit 	0.0033765451828946
scalar one_cache_scenario_3_links_network.statistics 	interests 	76874.857142857
scalar one_cache_scenario_3_links_network.statistics 	data 	51076.857142857
scalar one_cache_scenario_3_links_network.statistics 	hdistance 	1.97987662388
scalar one_cache_scenario_3_links_network.statistics 	avg_time 	0
scalar one_cache_scenario_3_links_network.statistics 	downloads 	180586
scalar one_cache_scenario_3_links_network.statistics 	total_cost 	356273
scalar one_cache_scenario_3_links_network.statistics 	total_replicas 	100000
scalar one_cache_scenario_3_links_network.statistics 	interests_sent 	180586
scalar one_cache_scenario_3_links_network.node[0].core_layer 	interests[0] 	180586
scalar one_cache_scenario_3_links_network.node[0].core_layer 	data[0] 	178769
scalar one_cache_scenario_3_links_network.node[0].core_layer 	repo_int[0] 	178769
scalar one_cache_scenario_3_links_network.node[0].content_store 	p_hit[0] 	0.010061688059983
scalar one_cache_scenario_3_links_network.node[0].content_store 	hits[0] 	1817
scalar one_cache_scenario_3_links_network.node[0].content_store 	misses[0] 	178769
scalar one_cache_scenario_3_links_network.node[0].content_store 	decision_yes[0] 	1801
scalar one_cache_scenario_3_links_network.node[0].content_store 	decision_no[0] 	176968
scalar one_cache_scenario_3_links_network.node[0].content_store 	decision_ratio[0] 	0.01007445362451
scalar one_cache_scenario_3_links_network.node[0].content_store 	correction_factor[0] 	0.012012784106793
scalar one_cache_scenario_3_links_network.node[0].content_store 	xi[0] 	0.25
scalar one_cache_scenario_3_links_network.node[1].core_layer 	interests[1] 	60068
scalar one_cache_scenario_3_links_network.node[1].core_layer 	data[1] 	60068
scalar one_cache_scenario_3_links_network.node[1].content_store 	p_hit[1] 	0
scalar one_cache_scenario_3_links_network.node[1].content_store 	hits[1] 	0
scalar one_cache_scenario_3_links_network.node[1].content_store 	misses[1] 	60068
scalar one_cache_scenario_3_links_network.node[1].content_store 	decision_yes[1] 	0
scalar one_cache_scenario_3_links_network.node[1].content_store 	decision_no[1] 	60068
scalar one_cache_scenario_3_links_network.node[1].content_store 	decision_ratio[1] 	0
scalar one_cache_scenario_3_links_network.node[2].core_layer 	interests[2] 	59308
scalar one_cache_scenario_3_links_network.node[2].core_layer 	data[2] 	59308
scalar one_cache_scenario_3_links_network.node[2].content_store 	p_hit[2] 	0
scalar one_cache_scenario_3_links_network.node[2].content_store 	hits[2] 	0
scalar one_cache_scenario_3_links_network.node[2].content_store 	misses[2] 	59308
scalar one_cache_scenario_3_links_network.node[2].content_store 	decision_yes[2] 	0
scalar one_cache_scenario_3_links_network.node[2].content_store 	decision_no[2] 	59308
scalar one_cache_scenario_3_links_network.node[2].content_store 	decision_ratio[2] 	0
scalar one_cache_scenario_3_links_network.node[3].core_layer 	interests[3] 	59393
scalar one_cache_scenario_3_links_network.node[3].core_layer 	data[3] 	59393
scalar one_cache_scenario_3_links_network.node[3].content_store 	p_hit[3] 	0
scalar one_cache_scenario_3_links_network.node[3].content_store 	hits[3] 	0
scalar one_cache_scenario_3_links_network.node[3].content_store 	misses[3] 	59393
scalar one_cache_scenario_3_links_network.node[3].content_store 	decision_yes[3] 	0
scalar one_cache_scenario_3_links_network.node[3].content_store 	decision_no[3] 	59393
scalar one_cache_scenario_3_links_network.node[3].content_store 	decision_ratio[3] 	0
scalar one_cache_scenario_3_links_network.node[4].core_layer 	interests[4] 	60068
scalar one_cache_scenario_3_links_network.node[4].core_layer 	repo_load[4] 	60068
scalar one_cache_scenario_3_links_network.node[4].core_layer 	data[4] 	0
scalar one_cache_scenario_3_links_network.node[4].content_store 	p_hit[4] 	0
scalar one_cache_scenario_3_links_network.node[4].content_store 	hits[4] 	0
scalar one_cache_scenario_3_links_network.node[4].content_store 	misses[4] 	60068
scalar one_cache_scenario_3_links_network.node[4].content_store 	decision_yes[4] 	0
scalar one_cache_scenario_3_links_network.node[4].content_store 	decision_no[4] 	60068
scalar one_cache_scenario_3_links_network.node[4].content_store 	decision_ratio[4] 	0
scalar one_cache_scenario_3_links_network.node[5].core_layer 	interests[5] 	59308
scalar one_cache_scenario_3_links_network.node[5].core_layer 	repo_load[5] 	59308
scalar one_cache_scenario_3_links_network.node[5].core_layer 	data[5] 	0
scalar one_cache_scenario_3_links_network.node[5].content_store 	p_hit[5] 	0
scalar one_cache_scenario_3_links_network.node[5].content_store 	hits[5] 	0
scalar one_cache_scenario_3_links_network.node[5].content_store 	misses[5] 	59308
scalar one_cache_scenario_3_links_network.node[5].content_store 	decision_yes[5] 	0
scalar one_cache_scenario_3_links_network.node[5].content_store 	decision_no[5] 	59308
scalar one_cache_scenario_3_links_network.node[5].content_store 	decision_ratio[5] 	0
scalar one_cache_scenario_3_links_network.node[6].core_layer 	interests[6] 	59393
scalar one_cache_scenario_3_links_network.node[6].core_layer 	repo_load[6] 	59393
scalar one_cache_scenario_3_links_network.node[6].core_layer 	data[6] 	0
scalar one_cache_scenario_3_links_network.node[6].content_store 	p_hit[6] 	0
scalar one_cache_scenario_3_links_network.node[6].content_store 	hits[6] 	0
scalar one_cache_scenario_3_links_network.node[6].content_store 	misses[6] 	59393
scalar one_cache_scenario_3_links_network.node[6].content_store 	decision_yes[6] 	0
scalar one_cache_scenario_3_links_network.node[6].content_store 	decision_no[6] 	59393
scalar one_cache_scenario_3_links_network.node[6].content_store 	decision_ratio[6] 	0
scalar one_cache_scenario_3_links_network.client[0] 	hdistance[0] 	1.97987662388
scalar one_cache_scenario_3_links_network.client[0] 	downloads[0] 	180586
scalar one_cache_scenario_3_links_network.client[0] 	avg_time[0] 	0
scalar one_cache_scenario_3_links_network.client[0] 	interests_sent[0] 	180586
