version 2
run General-14-20141007-11:06:57-23699
attr D costaware0.001
attr F nrr
attr R lru
attr a 1
attr configname General
attr csize 1e3
attr ctlg 1e5
attr datetime 20141007-11:06:57
attr experiment General
attr inifile omnetpp.ini
attr iterationvars "$net=abilene_cost, $rep=5, $priceratiovalue=10, $weights=0.333_0.333_0.334, $lambda=100, $a=1, $ctlg=1e5, $F=nrr, $ttl=10, $D=costaware0.001, $xi=1, $R=lru, $csize=1e3, $pricebits=0, $window=60, $variance=0.05, $mytime=1800"
attr iterationvars2 "$net=abilene_cost, $rep=5, $priceratiovalue=10, $weights=0.333_0.333_0.334, $lambda=100, $a=1, $ctlg=1e5, $F=nrr, $ttl=10, $D=costaware0.001, $xi=1, $R=lru, $csize=1e3, $pricebits=0, $window=60, $variance=0.05, $mytime=1800, $repetition=0"
attr lambda 100
attr measurement "$net=abilene_cost, $rep=5, $priceratiovalue=10, $weights=0.333_0.333_0.334, $lambda=100, $a=1, $ctlg=1e5, $F=nrr, $ttl=10, $D=costaware0.001, $xi=1, $R=lru, $csize=1e3, $pricebits=0, $window=60, $variance=0.05, $mytime=1800"
attr mytime 1800
attr net abilene_cost
attr network networks.${net=abilene_cost,geant_cost}_network
attr pricebits 0
attr priceratiovalue 10
attr processid 23699
attr rep 5
attr repetition 0
attr replication #0
attr resultdir results
attr runnumber 14
attr seedset 5
attr ttl 10
attr variance 0.05
attr weights 0.333_0.333_0.334
attr window 60
attr xi 1

scalar . 	a 	1
scalar . 	csize 	1e3
scalar . 	ctlg 	1e5
scalar . 	lambda 	100
scalar . 	mytime 	1800
scalar . 	pricebits 	0
scalar . 	priceratiovalue 	10
scalar . 	rep 	5
scalar . 	ttl 	10
scalar . 	variance 	0.05
scalar . 	window 	60
scalar . 	xi 	1
scalar abilene_cost_network.content_distribution 	repo-0 	9
scalar abilene_cost_network.content_distribution 	repo-1 	5
scalar abilene_cost_network.content_distribution 	repo-2 	1
scalar abilene_cost_network.content_distribution 	client-0 	4
scalar abilene_cost_network.content_distribution 	client-1 	9
scalar abilene_cost_network.content_distribution 	client-2 	0
scalar abilene_cost_network.content_distribution 	repo-0_card 	33098
scalar abilene_cost_network.content_distribution 	repo-0_price 	1
scalar abilene_cost_network.content_distribution 	repo-1_card 	33495
scalar abilene_cost_network.content_distribution 	repo-1_price 	10
scalar abilene_cost_network.content_distribution 	repo-2_card 	33407
scalar abilene_cost_network.content_distribution 	repo-2_price 	0
scalar abilene_cost_network.statistics 	repo_popularity[0] 	0.31037770261398
scalar abilene_cost_network.statistics 	repo_popularity[1] 	0.29913869324176
scalar abilene_cost_network.statistics 	repo_popularity[2] 	0.39048360414427
scalar abilene_cost_network.statistics 	stabilization_time 	25656.2
scalar abilene_cost_network.statistics 	p_hit 	0.10593828689209
scalar abilene_cost_network.statistics 	interests 	151018.45454545
scalar abilene_cost_network.statistics 	data 	101812
scalar abilene_cost_network.statistics 	hdistance 	2.7660162647569
scalar abilene_cost_network.statistics 	avg_time 	0.01366562222
scalar abilene_cost_network.statistics 	downloads 	534494
scalar abilene_cost_network.statistics 	total_cost 	752797
scalar abilene_cost_network.statistics 	total_replicas 	100000
scalar abilene_cost_network.statistics 	inner_hit 	0.32933204114546
scalar abilene_cost_network.node[0].core_layer 	interests[0] 	187811
scalar abilene_cost_network.node[0].core_layer 	data[0] 	167679
scalar abilene_cost_network.node[0].core_layer 	repo_int[0] 	358468
scalar abilene_cost_network.node[0].content_store 	p_hit[0] 	0.096650355942943
scalar abilene_cost_network.node[0].content_store 	hits[0] 	18152
scalar abilene_cost_network.node[0].content_store 	misses[0] 	169659
scalar abilene_cost_network.node[0].content_store 	decision_yes[0] 	60
scalar abilene_cost_network.node[0].content_store 	decision_no[0] 	167619
scalar abilene_cost_network.node[0].content_store 	decision_ratio[0] 	0.00035782656146566
scalar abilene_cost_network.node[0].content_store 	correction_factor[0] 	0.00027225701061802
scalar abilene_cost_network.node[0].content_store 	kappa[0] 	1
scalar abilene_cost_network.node[1].core_layer 	interests[1] 	276302
scalar abilene_cost_network.node[1].core_layer 	repo_load[1] 	206475
scalar abilene_cost_network.node[1].core_layer 	data[1] 	51120
scalar abilene_cost_network.node[1].content_store 	p_hit[1] 	0.067704902606568
scalar abilene_cost_network.node[1].content_store 	hits[1] 	18707
scalar abilene_cost_network.node[1].content_store 	misses[1] 	257595
scalar abilene_cost_network.node[1].content_store 	decision_yes[1] 	57
scalar abilene_cost_network.node[1].content_store 	decision_no[1] 	257538
scalar abilene_cost_network.node[1].content_store 	decision_ratio[1] 	0.00022127758690968
scalar abilene_cost_network.node[1].content_store 	correction_factor[1] 	0.00027225701061802
scalar abilene_cost_network.node[1].content_store 	kappa[1] 	1
scalar abilene_cost_network.node[2].core_layer 	interests[2] 	172575
scalar abilene_cost_network.node[2].core_layer 	data[2] 	161695
scalar abilene_cost_network.node[2].content_store 	p_hit[2] 	0.063004490801101
scalar abilene_cost_network.node[2].content_store 	hits[2] 	10873
scalar abilene_cost_network.node[2].content_store 	misses[2] 	161702
scalar abilene_cost_network.node[2].content_store 	decision_yes[2] 	59
scalar abilene_cost_network.node[2].content_store 	decision_no[2] 	161636
scalar abilene_cost_network.node[2].content_store 	decision_ratio[2] 	0.00036488450477751
scalar abilene_cost_network.node[2].content_store 	correction_factor[2] 	0.00027225701061802
scalar abilene_cost_network.node[2].content_store 	kappa[2] 	1
scalar abilene_cost_network.node[3].core_layer 	interests[3] 	169896
scalar abilene_cost_network.node[3].core_layer 	data[3] 	161381
scalar abilene_cost_network.node[3].content_store 	p_hit[3] 	0.050118896265951
scalar abilene_cost_network.node[3].content_store 	hits[3] 	8515
scalar abilene_cost_network.node[3].content_store 	misses[3] 	161381
scalar abilene_cost_network.node[3].content_store 	decision_yes[3] 	64
scalar abilene_cost_network.node[3].content_store 	decision_no[3] 	161317
scalar abilene_cost_network.node[3].content_store 	decision_ratio[3] 	0.00039657704438565
scalar abilene_cost_network.node[3].content_store 	correction_factor[3] 	0.00027225701061802
scalar abilene_cost_network.node[3].content_store 	kappa[3] 	1
scalar abilene_cost_network.node[4].core_layer 	interests[4] 	214122
scalar abilene_cost_network.node[4].core_layer 	data[4] 	196982
scalar abilene_cost_network.node[4].content_store 	p_hit[4] 	0.067713733292235
scalar abilene_cost_network.node[4].content_store 	hits[4] 	14499
scalar abilene_cost_network.node[4].content_store 	misses[4] 	199623
scalar abilene_cost_network.node[4].content_store 	decision_yes[4] 	123
scalar abilene_cost_network.node[4].content_store 	decision_no[4] 	196859
scalar abilene_cost_network.node[4].content_store 	decision_ratio[4] 	0.00062442253606929
scalar abilene_cost_network.node[4].content_store 	correction_factor[4] 	0.00027225701061802
scalar abilene_cost_network.node[4].content_store 	kappa[4] 	1
scalar abilene_cost_network.node[5].core_layer 	interests[5] 	96051
scalar abilene_cost_network.node[5].core_layer 	repo_load[5] 	66756
scalar abilene_cost_network.node[5].core_layer 	data[5] 	0
scalar abilene_cost_network.node[5].content_store 	p_hit[5] 	0.30499422181966
scalar abilene_cost_network.node[5].content_store 	hits[5] 	29295
scalar abilene_cost_network.node[5].content_store 	misses[5] 	66756
scalar abilene_cost_network.node[5].content_store 	decision_yes[5] 	166
scalar abilene_cost_network.node[5].content_store 	decision_no[5] 	66590
scalar abilene_cost_network.node[5].content_store 	decision_ratio[5] 	0.0024866678650608
scalar abilene_cost_network.node[5].content_store 	correction_factor[5] 	0.00027225701061802
scalar abilene_cost_network.node[5].content_store 	kappa[5] 	1
scalar abilene_cost_network.node[6].core_layer 	interests[6] 	31792
scalar abilene_cost_network.node[6].core_layer 	data[6] 	27472
scalar abilene_cost_network.node[6].content_store 	p_hit[6] 	0.13588324106694
scalar abilene_cost_network.node[6].content_store 	hits[6] 	4320
scalar abilene_cost_network.node[6].content_store 	misses[6] 	27472
scalar abilene_cost_network.node[6].content_store 	decision_yes[6] 	48
scalar abilene_cost_network.node[6].content_store 	decision_no[6] 	27424
scalar abilene_cost_network.node[6].content_store 	decision_ratio[6] 	0.0017472335468841
scalar abilene_cost_network.node[6].content_store 	correction_factor[6] 	0.00027225701061802
scalar abilene_cost_network.node[6].content_store 	kappa[6] 	1
scalar abilene_cost_network.node[7].core_layer 	interests[7] 	38172
scalar abilene_cost_network.node[7].core_layer 	data[7] 	31792
scalar abilene_cost_network.node[7].content_store 	p_hit[7] 	0.16708582206853
scalar abilene_cost_network.node[7].content_store 	hits[7] 	6378
scalar abilene_cost_network.node[7].content_store 	misses[7] 	31794
scalar abilene_cost_network.node[7].content_store 	decision_yes[7] 	57
scalar abilene_cost_network.node[7].content_store 	decision_no[7] 	31735
scalar abilene_cost_network.node[7].content_store 	decision_ratio[7] 	0.0017929038751887
scalar abilene_cost_network.node[7].content_store 	correction_factor[7] 	0.00027225701061802
scalar abilene_cost_network.node[7].content_store 	kappa[7] 	1
scalar abilene_cost_network.node[8].core_layer 	interests[8] 	85733
scalar abilene_cost_network.node[8].core_layer 	data[8] 	78453
scalar abilene_cost_network.node[8].content_store 	p_hit[8] 	0.084926457723397
scalar abilene_cost_network.node[8].content_store 	hits[8] 	7281
scalar abilene_cost_network.node[8].content_store 	misses[8] 	78452
scalar abilene_cost_network.node[8].content_store 	decision_yes[8] 	69
scalar abilene_cost_network.node[8].content_store 	decision_no[8] 	78384
scalar abilene_cost_network.node[8].content_store 	decision_ratio[8] 	0.00087950747581354
scalar abilene_cost_network.node[8].content_store 	correction_factor[8] 	0.00027225701061802
scalar abilene_cost_network.node[8].content_store 	kappa[8] 	1
scalar abilene_cost_network.node[9].core_layer 	interests[9] 	262692
scalar abilene_cost_network.node[9].core_layer 	repo_load[9] 	85237
scalar abilene_cost_network.node[9].core_layer 	data[9] 	120737
scalar abilene_cost_network.node[9].content_store 	p_hit[9] 	0.20758150229166
scalar abilene_cost_network.node[9].content_store 	hits[9] 	54530
scalar abilene_cost_network.node[9].content_store 	misses[9] 	208162
scalar abilene_cost_network.node[9].content_store 	decision_yes[9] 	72
scalar abilene_cost_network.node[9].content_store 	decision_no[9] 	205902
scalar abilene_cost_network.node[9].content_store 	decision_ratio[9] 	0.00034955868216377
scalar abilene_cost_network.node[9].content_store 	correction_factor[9] 	0.00027225701061802
scalar abilene_cost_network.node[9].content_store 	kappa[9] 	1
scalar abilene_cost_network.node[10].core_layer 	interests[10] 	126057
scalar abilene_cost_network.node[10].core_layer 	data[10] 	122621
scalar abilene_cost_network.node[10].content_store 	p_hit[10] 	0.027249577572051
scalar abilene_cost_network.node[10].content_store 	hits[10] 	3435
scalar abilene_cost_network.node[10].content_store 	misses[10] 	122622
scalar abilene_cost_network.node[10].content_store 	decision_yes[10] 	5
scalar abilene_cost_network.node[10].content_store 	decision_no[10] 	122616
scalar abilene_cost_network.node[10].content_store 	decision_ratio[10] 	4.0776049779402e-05
scalar abilene_cost_network.node[10].content_store 	correction_factor[10] 	0.00027225701061802
scalar abilene_cost_network.node[10].content_store 	kappa[10] 	1
scalar abilene_cost_network.client[0] 	hdistance[0] 	2.6640915833963
scalar abilene_cost_network.client[0] 	downloads[0] 	178635
scalar abilene_cost_network.client[0] 	avg_time[0] 	0.014435274559
scalar abilene_cost_network.client[4] 	hdistance[4] 	3.2423391445003
scalar abilene_cost_network.client[4] 	downloads[4] 	178048
scalar abilene_cost_network.client[4] 	avg_time[4] 	0.014217006397
scalar abilene_cost_network.client[9] 	hdistance[9] 	2.3916180663739
scalar abilene_cost_network.client[9] 	downloads[9] 	177811
scalar abilene_cost_network.client[9] 	avg_time[9] 	0.012344585704
