version 2
run General-14-20141007-11:26:42-513
attr D costaware0.001
attr F nrr
attr R lru
attr a 1
attr configname General
attr csize 1e3
attr ctlg 1e5
attr datetime 20141007-11:26:42
attr experiment General
attr inifile omnetpp.ini
attr iterationvars "$net=abilene_cost, $rep=4, $priceratiovalue=10, $weights=0.333_0.333_0.334, $lambda=100, $a=1, $ctlg=1e5, $F=nrr, $ttl=10, $D=costaware0.001, $xi=1, $R=lru, $csize=1e3, $pricebits=0, $window=60, $variance=0.05, $mytime=1800"
attr iterationvars2 "$net=abilene_cost, $rep=4, $priceratiovalue=10, $weights=0.333_0.333_0.334, $lambda=100, $a=1, $ctlg=1e5, $F=nrr, $ttl=10, $D=costaware0.001, $xi=1, $R=lru, $csize=1e3, $pricebits=0, $window=60, $variance=0.05, $mytime=1800, $repetition=0"
attr lambda 100
attr measurement "$net=abilene_cost, $rep=4, $priceratiovalue=10, $weights=0.333_0.333_0.334, $lambda=100, $a=1, $ctlg=1e5, $F=nrr, $ttl=10, $D=costaware0.001, $xi=1, $R=lru, $csize=1e3, $pricebits=0, $window=60, $variance=0.05, $mytime=1800"
attr mytime 1800
attr net abilene_cost
attr network networks.${net=abilene_cost,geant_cost}_network
attr pricebits 0
attr priceratiovalue 10
attr processid 513
attr rep 4
attr repetition 0
attr replication #0
attr resultdir results
attr runnumber 14
attr seedset 4
attr ttl 10
attr variance 0.05
attr weights 0.333_0.333_0.334
attr window 60
attr xi 1

scalar . 	a 	1
scalar . 	csize 	1e3
scalar . 	ctlg 	1e5
scalar . 	lambda 	100
scalar . 	mytime 	1800
scalar . 	pricebits 	0
scalar . 	priceratiovalue 	10
scalar . 	rep 	4
scalar . 	ttl 	10
scalar . 	variance 	0.05
scalar . 	window 	60
scalar . 	xi 	1
scalar abilene_cost_network.content_distribution 	repo-0 	2
scalar abilene_cost_network.content_distribution 	repo-1 	0
scalar abilene_cost_network.content_distribution 	repo-2 	10
scalar abilene_cost_network.content_distribution 	client-0 	6
scalar abilene_cost_network.content_distribution 	client-1 	2
scalar abilene_cost_network.content_distribution 	client-2 	4
scalar abilene_cost_network.content_distribution 	repo-0_card 	33274
scalar abilene_cost_network.content_distribution 	repo-0_price 	0
scalar abilene_cost_network.content_distribution 	repo-1_card 	33153
scalar abilene_cost_network.content_distribution 	repo-1_price 	1
scalar abilene_cost_network.content_distribution 	repo-2_card 	33573
scalar abilene_cost_network.content_distribution 	repo-2_price 	10
scalar abilene_cost_network.statistics 	repo_popularity[0] 	0.33945880017902
scalar abilene_cost_network.statistics 	repo_popularity[1] 	0.30988277584688
scalar abilene_cost_network.statistics 	repo_popularity[2] 	0.35065842397411
scalar abilene_cost_network.statistics 	stabilization_time 	36060
scalar abilene_cost_network.statistics 	p_hit 	0.11626151733358
scalar abilene_cost_network.statistics 	interests 	167543.90909091
scalar abilene_cost_network.statistics 	data 	118453.27272727
scalar abilene_cost_network.statistics 	hdistance 	3.0518826457228
scalar abilene_cost_network.statistics 	avg_time 	0.014462456001
scalar abilene_cost_network.statistics 	downloads 	533515
scalar abilene_cost_network.statistics 	total_cost 	705567
scalar abilene_cost_network.statistics 	total_replicas 	100000
scalar abilene_cost_network.statistics 	inner_hit 	0.40761740532131
scalar abilene_cost_network.node[0].core_layer 	interests[0] 	94879
scalar abilene_cost_network.node[0].core_layer 	repo_load[0] 	72707
scalar abilene_cost_network.node[0].core_layer 	data[0] 	0
scalar abilene_cost_network.node[0].core_layer 	repo_int[0] 	316045
scalar abilene_cost_network.node[0].content_store 	p_hit[0] 	0.23368711727569
scalar abilene_cost_network.node[0].content_store 	hits[0] 	22172
scalar abilene_cost_network.node[0].content_store 	misses[0] 	72707
scalar abilene_cost_network.node[0].content_store 	decision_yes[0] 	29
scalar abilene_cost_network.node[0].content_store 	decision_no[0] 	72678
scalar abilene_cost_network.node[0].content_store 	decision_ratio[0] 	0.00039886118255464
scalar abilene_cost_network.node[0].content_store 	correction_factor[0] 	0.00027225701061802
scalar abilene_cost_network.node[0].content_store 	kappa[0] 	1
scalar abilene_cost_network.node[1].core_layer 	interests[1] 	201663
scalar abilene_cost_network.node[1].core_layer 	data[1] 	175766
scalar abilene_cost_network.node[1].content_store 	p_hit[1] 	0.12842216965928
scalar abilene_cost_network.node[1].content_store 	hits[1] 	25898
scalar abilene_cost_network.node[1].content_store 	misses[1] 	175765
scalar abilene_cost_network.node[1].content_store 	decision_yes[1] 	125
scalar abilene_cost_network.node[1].content_store 	decision_no[1] 	175641
scalar abilene_cost_network.node[1].content_store 	decision_ratio[1] 	0.00071117280930328
scalar abilene_cost_network.node[1].content_store 	correction_factor[1] 	0.00027225701061802
scalar abilene_cost_network.node[1].content_store 	kappa[1] 	1
scalar abilene_cost_network.node[2].core_layer 	interests[2] 	443554
scalar abilene_cost_network.node[2].core_layer 	repo_load[2] 	180052
scalar abilene_cost_network.node[2].core_layer 	data[2] 	237413
scalar abilene_cost_network.node[2].content_store 	p_hit[2] 	0.052622679538455
scalar abilene_cost_network.node[2].content_store 	hits[2] 	23341
scalar abilene_cost_network.node[2].content_store 	misses[2] 	420213
scalar abilene_cost_network.node[2].content_store 	decision_yes[2] 	139
scalar abilene_cost_network.node[2].content_store 	decision_no[2] 	417326
scalar abilene_cost_network.node[2].content_store 	decision_ratio[2] 	0.00033296204472231
scalar abilene_cost_network.node[2].content_store 	correction_factor[2] 	0.00027225701061802
scalar abilene_cost_network.node[2].content_store 	kappa[2] 	1
scalar abilene_cost_network.node[3].core_layer 	interests[3] 	309425
scalar abilene_cost_network.node[3].core_layer 	data[3] 	276745
scalar abilene_cost_network.node[3].content_store 	p_hit[3] 	0.10137189949099
scalar abilene_cost_network.node[3].content_store 	hits[3] 	31367
scalar abilene_cost_network.node[3].content_store 	misses[3] 	278058
scalar abilene_cost_network.node[3].content_store 	decision_yes[3] 	61
scalar abilene_cost_network.node[3].content_store 	decision_no[3] 	276684
scalar abilene_cost_network.node[3].content_store 	decision_ratio[3] 	0.00022041951977452
scalar abilene_cost_network.node[3].content_store 	correction_factor[3] 	0.00027225701061802
scalar abilene_cost_network.node[3].content_store 	kappa[3] 	1
scalar abilene_cost_network.node[4].core_layer 	interests[4] 	189967
scalar abilene_cost_network.node[4].core_layer 	data[4] 	173207
scalar abilene_cost_network.node[4].content_store 	p_hit[4] 	0.077402917348803
scalar abilene_cost_network.node[4].content_store 	hits[4] 	14704
scalar abilene_cost_network.node[4].content_store 	misses[4] 	175263
scalar abilene_cost_network.node[4].content_store 	decision_yes[4] 	68
scalar abilene_cost_network.node[4].content_store 	decision_no[4] 	173139
scalar abilene_cost_network.node[4].content_store 	decision_ratio[4] 	0.00039259383281276
scalar abilene_cost_network.node[4].content_store 	correction_factor[4] 	0.00027225701061802
scalar abilene_cost_network.node[4].content_store 	kappa[4] 	1
scalar abilene_cost_network.node[5].core_layer 	interests[5] 	7405
scalar abilene_cost_network.node[5].core_layer 	data[5] 	7405
scalar abilene_cost_network.node[5].content_store 	p_hit[5] 	0
scalar abilene_cost_network.node[5].content_store 	hits[5] 	0
scalar abilene_cost_network.node[5].content_store 	misses[5] 	7405
scalar abilene_cost_network.node[5].content_store 	decision_yes[5] 	0
scalar abilene_cost_network.node[5].content_store 	decision_no[5] 	7405
scalar abilene_cost_network.node[5].content_store 	decision_ratio[5] 	0
scalar abilene_cost_network.node[5].content_store 	correction_factor[5] 	0.00027225701061802
scalar abilene_cost_network.node[5].content_store 	kappa[5] 	1
scalar abilene_cost_network.node[6].core_layer 	interests[6] 	184806
scalar abilene_cost_network.node[6].core_layer 	data[6] 	174116
scalar abilene_cost_network.node[6].content_store 	p_hit[6] 	0.038732508684783
scalar abilene_cost_network.node[6].content_store 	hits[6] 	7158
scalar abilene_cost_network.node[6].content_store 	misses[6] 	177648
scalar abilene_cost_network.node[6].content_store 	decision_yes[6] 	61
scalar abilene_cost_network.node[6].content_store 	decision_no[6] 	174055
scalar abilene_cost_network.node[6].content_store 	decision_ratio[6] 	0.00035034115187576
scalar abilene_cost_network.node[6].content_store 	correction_factor[6] 	0.00027225701061802
scalar abilene_cost_network.node[6].content_store 	kappa[6] 	1
scalar abilene_cost_network.node[7].core_layer 	interests[7] 	177311
scalar abilene_cost_network.node[7].core_layer 	data[7] 	168543
scalar abilene_cost_network.node[7].content_store 	p_hit[7] 	0.049466756151621
scalar abilene_cost_network.node[7].content_store 	hits[7] 	8771
scalar abilene_cost_network.node[7].content_store 	misses[7] 	168540
scalar abilene_cost_network.node[7].content_store 	decision_yes[7] 	65
scalar abilene_cost_network.node[7].content_store 	decision_no[7] 	168478
scalar abilene_cost_network.node[7].content_store 	decision_ratio[7] 	0.00038565825931661
scalar abilene_cost_network.node[7].content_store 	correction_factor[7] 	0.00027225701061802
scalar abilene_cost_network.node[7].content_store 	kappa[7] 	1
scalar abilene_cost_network.node[8].core_layer 	interests[8] 	63297
scalar abilene_cost_network.node[8].core_layer 	data[8] 	49248
scalar abilene_cost_network.node[8].content_store 	p_hit[8] 	0.22132170561006
scalar abilene_cost_network.node[8].content_store 	hits[8] 	14009
scalar abilene_cost_network.node[8].content_store 	misses[8] 	49288
scalar abilene_cost_network.node[8].content_store 	decision_yes[8] 	48
scalar abilene_cost_network.node[8].content_store 	decision_no[8] 	49200
scalar abilene_cost_network.node[8].content_store 	decision_ratio[8] 	0.00097465886939571
scalar abilene_cost_network.node[8].content_store 	correction_factor[8] 	0.00027225701061802
scalar abilene_cost_network.node[8].content_store 	kappa[8] 	1
scalar abilene_cost_network.node[9].core_layer 	interests[9] 	49247
scalar abilene_cost_network.node[9].core_layer 	data[9] 	40543
scalar abilene_cost_network.node[9].content_store 	p_hit[9] 	0.17676203626617
scalar abilene_cost_network.node[9].content_store 	hits[9] 	8705
scalar abilene_cost_network.node[9].content_store 	misses[9] 	40542
scalar abilene_cost_network.node[9].content_store 	decision_yes[9] 	58
scalar abilene_cost_network.node[9].content_store 	decision_no[9] 	40485
scalar abilene_cost_network.node[9].content_store 	decision_ratio[9] 	0.0014305798781541
scalar abilene_cost_network.node[9].content_store 	correction_factor[9] 	0.00027225701061802
scalar abilene_cost_network.node[9].content_store 	kappa[9] 	1
scalar abilene_cost_network.node[10].core_layer 	interests[10] 	121429
scalar abilene_cost_network.node[10].core_layer 	repo_load[10] 	63286
scalar abilene_cost_network.node[10].core_layer 	data[10] 	0
scalar abilene_cost_network.node[10].content_store 	p_hit[10] 	0.47882301591877
scalar abilene_cost_network.node[10].content_store 	hits[10] 	58143
scalar abilene_cost_network.node[10].content_store 	misses[10] 	63286
scalar abilene_cost_network.node[10].content_store 	decision_yes[10] 	177
scalar abilene_cost_network.node[10].content_store 	decision_no[10] 	63109
scalar abilene_cost_network.node[10].content_store 	decision_ratio[10] 	0.0027968271023607
scalar abilene_cost_network.node[10].content_store 	correction_factor[10] 	0.00027225701061802
scalar abilene_cost_network.node[10].content_store 	kappa[10] 	1
scalar abilene_cost_network.client[2] 	hdistance[2] 	1.7025553358138
scalar abilene_cost_network.client[2] 	downloads[2] 	178998
scalar abilene_cost_network.client[2] 	avg_time[2] 	0.008289203401
scalar abilene_cost_network.client[4] 	hdistance[4] 	3.4070645335251
scalar abilene_cost_network.client[4] 	downloads[4] 	178016
scalar abilene_cost_network.client[4] 	avg_time[4] 	0.013641612321
scalar abilene_cost_network.client[6] 	hdistance[6] 	4.0460280678296
scalar abilene_cost_network.client[6] 	downloads[6] 	176501
scalar abilene_cost_network.client[6] 	avg_time[6] 	0.021456552282
