version 2
run General-14-20141007-11:26:34-15349
attr D costaware0.001
attr F nrr
attr R lru
attr a 1
attr configname General
attr csize 1e3
attr ctlg 1e5
attr datetime 20141007-11:26:34
attr experiment General
attr inifile omnetpp.ini
attr iterationvars "$net=abilene_cost, $rep=2, $priceratiovalue=10, $weights=0.333_0.333_0.334, $lambda=100, $a=1, $ctlg=1e5, $F=nrr, $ttl=10, $D=costaware0.001, $xi=1, $R=lru, $csize=1e3, $pricebits=0, $window=60, $variance=0.05, $mytime=1800"
attr iterationvars2 "$net=abilene_cost, $rep=2, $priceratiovalue=10, $weights=0.333_0.333_0.334, $lambda=100, $a=1, $ctlg=1e5, $F=nrr, $ttl=10, $D=costaware0.001, $xi=1, $R=lru, $csize=1e3, $pricebits=0, $window=60, $variance=0.05, $mytime=1800, $repetition=0"
attr lambda 100
attr measurement "$net=abilene_cost, $rep=2, $priceratiovalue=10, $weights=0.333_0.333_0.334, $lambda=100, $a=1, $ctlg=1e5, $F=nrr, $ttl=10, $D=costaware0.001, $xi=1, $R=lru, $csize=1e3, $pricebits=0, $window=60, $variance=0.05, $mytime=1800"
attr mytime 1800
attr net abilene_cost
attr network networks.${net=abilene_cost,geant_cost}_network
attr pricebits 0
attr priceratiovalue 10
attr processid 15349
attr rep 2
attr repetition 0
attr replication #0
attr resultdir results
attr runnumber 14
attr seedset 2
attr ttl 10
attr variance 0.05
attr weights 0.333_0.333_0.334
attr window 60
attr xi 1

scalar . 	a 	1
scalar . 	csize 	1e3
scalar . 	ctlg 	1e5
scalar . 	lambda 	100
scalar . 	mytime 	1800
scalar . 	pricebits 	0
scalar . 	priceratiovalue 	10
scalar . 	rep 	2
scalar . 	ttl 	10
scalar . 	variance 	0.05
scalar . 	window 	60
scalar . 	xi 	1
scalar abilene_cost_network.content_distribution 	repo-0 	4
scalar abilene_cost_network.content_distribution 	repo-1 	9
scalar abilene_cost_network.content_distribution 	repo-2 	6
scalar abilene_cost_network.content_distribution 	client-0 	3
scalar abilene_cost_network.content_distribution 	client-1 	7
scalar abilene_cost_network.content_distribution 	client-2 	9
scalar abilene_cost_network.content_distribution 	repo-0_card 	33329
scalar abilene_cost_network.content_distribution 	repo-0_price 	1
scalar abilene_cost_network.content_distribution 	repo-1_card 	33052
scalar abilene_cost_network.content_distribution 	repo-1_price 	10
scalar abilene_cost_network.content_distribution 	repo-2_card 	33619
scalar abilene_cost_network.content_distribution 	repo-2_price 	0
scalar abilene_cost_network.statistics 	repo_popularity[0] 	0.33984204835506
scalar abilene_cost_network.statistics 	repo_popularity[1] 	0.39407385110283
scalar abilene_cost_network.statistics 	repo_popularity[2] 	0.26608410054213
scalar abilene_cost_network.statistics 	stabilization_time 	36060
scalar abilene_cost_network.statistics 	p_hit 	0.16797924627059
scalar abilene_cost_network.statistics 	interests 	127311.18181818
scalar abilene_cost_network.statistics 	data 	78228.272727273
scalar abilene_cost_network.statistics 	hdistance 	2.1644007926077
scalar abilene_cost_network.statistics 	avg_time 	0.011447799953
scalar abilene_cost_network.statistics 	downloads 	537269
scalar abilene_cost_network.statistics 	total_cost 	895381
scalar abilene_cost_network.statistics 	total_replicas 	100000
scalar abilene_cost_network.statistics 	inner_hit 	0.43867597051012
scalar abilene_cost_network.node[0].core_layer 	interests[0] 	0
scalar abilene_cost_network.node[0].core_layer 	data[0] 	0
scalar abilene_cost_network.node[0].core_layer 	repo_int[0] 	301582
scalar abilene_cost_network.node[0].content_store 	p_hit[0] 	-nan
scalar abilene_cost_network.node[0].content_store 	hits[0] 	0
scalar abilene_cost_network.node[0].content_store 	misses[0] 	0
scalar abilene_cost_network.node[0].content_store 	decision_yes[0] 	0
scalar abilene_cost_network.node[0].content_store 	decision_no[0] 	0
scalar abilene_cost_network.node[0].content_store 	decision_ratio[0] 	0
scalar abilene_cost_network.node[0].content_store 	correction_factor[0] 	0.00027225701061802
scalar abilene_cost_network.node[0].content_store 	kappa[0] 	1
scalar abilene_cost_network.node[1].core_layer 	interests[1] 	0
scalar abilene_cost_network.node[1].core_layer 	data[1] 	0
scalar abilene_cost_network.node[1].content_store 	p_hit[1] 	-nan
scalar abilene_cost_network.node[1].content_store 	hits[1] 	0
scalar abilene_cost_network.node[1].content_store 	misses[1] 	0
scalar abilene_cost_network.node[1].content_store 	decision_yes[1] 	0
scalar abilene_cost_network.node[1].content_store 	decision_no[1] 	0
scalar abilene_cost_network.node[1].content_store 	decision_ratio[1] 	0
scalar abilene_cost_network.node[1].content_store 	correction_factor[1] 	0.00027225701061802
scalar abilene_cost_network.node[1].content_store 	kappa[1] 	1
scalar abilene_cost_network.node[2].core_layer 	interests[2] 	109060
scalar abilene_cost_network.node[2].core_layer 	data[2] 	92658
scalar abilene_cost_network.node[2].content_store 	p_hit[2] 	0.15038510911425
scalar abilene_cost_network.node[2].content_store 	hits[2] 	16401
scalar abilene_cost_network.node[2].content_store 	misses[2] 	92659
scalar abilene_cost_network.node[2].content_store 	decision_yes[2] 	50
scalar abilene_cost_network.node[2].content_store 	decision_no[2] 	92608
scalar abilene_cost_network.node[2].content_store 	decision_ratio[2] 	0.00053961881327031
scalar abilene_cost_network.node[2].content_store 	correction_factor[2] 	0.00027225701061802
scalar abilene_cost_network.node[2].content_store 	kappa[2] 	1
scalar abilene_cost_network.node[3].core_layer 	interests[3] 	291450
scalar abilene_cost_network.node[3].core_layer 	data[3] 	232232
scalar abilene_cost_network.node[3].content_store 	p_hit[3] 	0.20051123691885
scalar abilene_cost_network.node[3].content_store 	hits[3] 	58439
scalar abilene_cost_network.node[3].content_store 	misses[3] 	233011
scalar abilene_cost_network.node[3].content_store 	decision_yes[3] 	83
scalar abilene_cost_network.node[3].content_store 	decision_no[3] 	232149
scalar abilene_cost_network.node[3].content_store 	decision_ratio[3] 	0.00035740121947019
scalar abilene_cost_network.node[3].content_store 	correction_factor[3] 	0.00027225701061802
scalar abilene_cost_network.node[3].content_store 	kappa[3] 	1
scalar abilene_cost_network.node[4].core_layer 	interests[4] 	109664
scalar abilene_cost_network.node[4].core_layer 	repo_load[4] 	77091
scalar abilene_cost_network.node[4].core_layer 	data[4] 	0
scalar abilene_cost_network.node[4].content_store 	p_hit[4] 	0.29702545958564
scalar abilene_cost_network.node[4].content_store 	hits[4] 	32573
scalar abilene_cost_network.node[4].content_store 	misses[4] 	77091
scalar abilene_cost_network.node[4].content_store 	decision_yes[4] 	20
scalar abilene_cost_network.node[4].content_store 	decision_no[4] 	77071
scalar abilene_cost_network.node[4].content_store 	decision_ratio[4] 	0.00025943365632824
scalar abilene_cost_network.node[4].content_store 	correction_factor[4] 	0.00027225701061802
scalar abilene_cost_network.node[4].content_store 	kappa[4] 	1
scalar abilene_cost_network.node[5].core_layer 	interests[5] 	0
scalar abilene_cost_network.node[5].core_layer 	data[5] 	0
scalar abilene_cost_network.node[5].content_store 	p_hit[5] 	-nan
scalar abilene_cost_network.node[5].content_store 	hits[5] 	0
scalar abilene_cost_network.node[5].content_store 	misses[5] 	0
scalar abilene_cost_network.node[5].content_store 	decision_yes[5] 	0
scalar abilene_cost_network.node[5].content_store 	decision_no[5] 	0
scalar abilene_cost_network.node[5].content_store 	decision_ratio[5] 	0
scalar abilene_cost_network.node[5].content_store 	correction_factor[5] 	0.00027225701061802
scalar abilene_cost_network.node[5].content_store 	kappa[5] 	1
scalar abilene_cost_network.node[6].core_layer 	interests[6] 	142662
scalar abilene_cost_network.node[6].core_layer 	repo_load[6] 	142662
scalar abilene_cost_network.node[6].core_layer 	data[6] 	0
scalar abilene_cost_network.node[6].content_store 	p_hit[6] 	0
scalar abilene_cost_network.node[6].content_store 	hits[6] 	0
scalar abilene_cost_network.node[6].content_store 	misses[6] 	142662
scalar abilene_cost_network.node[6].content_store 	decision_yes[6] 	0
scalar abilene_cost_network.node[6].content_store 	decision_no[6] 	142662
scalar abilene_cost_network.node[6].content_store 	decision_ratio[6] 	0
scalar abilene_cost_network.node[6].content_store 	correction_factor[6] 	0.00027225701061802
scalar abilene_cost_network.node[6].content_store 	kappa[6] 	1
scalar abilene_cost_network.node[7].core_layer 	interests[7] 	291135
scalar abilene_cost_network.node[7].core_layer 	data[7] 	261877
scalar abilene_cost_network.node[7].content_store 	p_hit[7] 	0.096340185824446
scalar abilene_cost_network.node[7].content_store 	hits[7] 	28048
scalar abilene_cost_network.node[7].content_store 	misses[7] 	263087
scalar abilene_cost_network.node[7].content_store 	decision_yes[7] 	83
scalar abilene_cost_network.node[7].content_store 	decision_no[7] 	261794
scalar abilene_cost_network.node[7].content_store 	decision_ratio[7] 	0.0003169426868339
scalar abilene_cost_network.node[7].content_store 	correction_factor[7] 	0.00027225701061802
scalar abilene_cost_network.node[7].content_store 	kappa[7] 	1
scalar abilene_cost_network.node[8].core_layer 	interests[8] 	207079
scalar abilene_cost_network.node[8].core_layer 	data[8] 	166889
scalar abilene_cost_network.node[8].content_store 	p_hit[8] 	0.19351068915728
scalar abilene_cost_network.node[8].content_store 	hits[8] 	40072
scalar abilene_cost_network.node[8].content_store 	misses[8] 	167007
scalar abilene_cost_network.node[8].content_store 	decision_yes[8] 	159
scalar abilene_cost_network.node[8].content_store 	decision_no[8] 	166730
scalar abilene_cost_network.node[8].content_store 	decision_ratio[8] 	0.00095272905943471
scalar abilene_cost_network.node[8].content_store 	correction_factor[8] 	0.00027225701061802
scalar abilene_cost_network.node[8].content_store 	kappa[8] 	1
scalar abilene_cost_network.node[9].core_layer 	interests[9] 	249373
scalar abilene_cost_network.node[9].core_layer 	repo_load[9] 	81829
scalar abilene_cost_network.node[9].core_layer 	data[9] 	106855
scalar abilene_cost_network.node[9].content_store 	p_hit[9] 	0.23943650675895
scalar abilene_cost_network.node[9].content_store 	hits[9] 	59709
scalar abilene_cost_network.node[9].content_store 	misses[9] 	189664
scalar abilene_cost_network.node[9].content_store 	decision_yes[9] 	244
scalar abilene_cost_network.node[9].content_store 	decision_no[9] 	188440
scalar abilene_cost_network.node[9].content_store 	decision_ratio[9] 	0.0012931674121812
scalar abilene_cost_network.node[9].content_store 	correction_factor[9] 	0.00027225701061802
scalar abilene_cost_network.node[9].content_store 	kappa[9] 	1
scalar abilene_cost_network.node[10].core_layer 	interests[10] 	0
scalar abilene_cost_network.node[10].core_layer 	data[10] 	0
scalar abilene_cost_network.node[10].content_store 	p_hit[10] 	-nan
scalar abilene_cost_network.node[10].content_store 	hits[10] 	0
scalar abilene_cost_network.node[10].content_store 	misses[10] 	0
scalar abilene_cost_network.node[10].content_store 	decision_yes[10] 	0
scalar abilene_cost_network.node[10].content_store 	decision_no[10] 	0
scalar abilene_cost_network.node[10].content_store 	decision_ratio[10] 	0
scalar abilene_cost_network.node[10].content_store 	correction_factor[10] 	0.00027225701061802
scalar abilene_cost_network.node[10].content_store 	kappa[10] 	1
scalar abilene_cost_network.client[3] 	hdistance[3] 	2.1298219957243
scalar abilene_cost_network.client[3] 	downloads[3] 	179153
scalar abilene_cost_network.client[3] 	avg_time[3] 	0.009632167296
scalar abilene_cost_network.client[7] 	hdistance[7] 	1.9199382037825
scalar abilene_cost_network.client[7] 	downloads[7] 	179299
scalar abilene_cost_network.client[7] 	avg_time[7] 	0.008899172534
scalar abilene_cost_network.client[9] 	hdistance[9] 	2.4434421783164
scalar abilene_cost_network.client[9] 	downloads[9] 	178817
scalar abilene_cost_network.client[9] 	avg_time[9] 	0.01581206003
