version 2
run General-259-20140511-15:08:28-12769
attr D costprobprodcorr0.01
attr F nrr
attr R lru
attr a 1
attr configname General
attr csize 1e3
attr ctlg 1e5
attr datetime 20140511-15:08:28
attr experiment General
attr inifile omnetpp.ini
attr iterationvars "$net=one_cache_scenario_3_links, $rep=5, $priceratiovalue=2, $weights=0.333_0.333_0.334, $a=1, $ctlg=1e5, $F=nrr, $ttl=1000, $D=costprobprodcorr0.01, $xi=0.9, $R=lru, $csize=1e3"
attr iterationvars2 "$net=one_cache_scenario_3_links, $rep=5, $priceratiovalue=2, $weights=0.333_0.333_0.334, $a=1, $ctlg=1e5, $F=nrr, $ttl=1000, $D=costprobprodcorr0.01, $xi=0.9, $R=lru, $csize=1e3, $repetition=0"
attr measurement "$net=one_cache_scenario_3_links, $rep=5, $priceratiovalue=2, $weights=0.333_0.333_0.334, $a=1, $ctlg=1e5, $F=nrr, $ttl=1000, $D=costprobprodcorr0.01, $xi=0.9, $R=lru, $csize=1e3"
attr net one_cache_scenario_3_links
attr network networks.${net=one_cache_scenario_3_links}_network
attr priceratiovalue 2
attr processid 12769
attr rep 5
attr repetition 0
attr replication #0
attr resultdir results
attr runnumber 259
attr seedset 5
attr ttl 1000
attr weights 0.333_0.333_0.334
attr xi 0.9

scalar . 	a 	1
scalar . 	csize 	1e3
scalar . 	ctlg 	1e5
scalar . 	priceratiovalue 	2
scalar . 	rep 	5
scalar . 	ttl 	1000
scalar . 	xi 	0.9
scalar one_cache_scenario_3_links_network.content_distribution 	repo-0 	4
scalar one_cache_scenario_3_links_network.content_distribution 	repo-1 	5
scalar one_cache_scenario_3_links_network.content_distribution 	repo-2 	6
scalar one_cache_scenario_3_links_network.content_distribution 	client-0 	0
scalar one_cache_scenario_3_links_network.content_distribution 	repo-0_card 	33102
scalar one_cache_scenario_3_links_network.content_distribution 	repo-1_card 	33495
scalar one_cache_scenario_3_links_network.content_distribution 	repo-2_card 	33403
scalar one_cache_scenario_3_links_network.statistics 	p_hit 	0.11109125660194
scalar one_cache_scenario_3_links_network.statistics 	interests 	63157.857142857
scalar one_cache_scenario_3_links_network.statistics 	data 	37427.714285714
scalar one_cache_scenario_3_links_network.statistics 	hdistance 	1.4546252033468
scalar one_cache_scenario_3_links_network.statistics 	avg_time 	0
scalar one_cache_scenario_3_links_network.statistics 	downloads 	180111
scalar one_cache_scenario_3_links_network.statistics 	total_cost 	75053
scalar one_cache_scenario_3_links_network.statistics 	total_replicas 	100000
scalar one_cache_scenario_3_links_network.statistics 	interests_sent 	180111
scalar one_cache_scenario_3_links_network.node[0].core_layer 	interests[0] 	180111
scalar one_cache_scenario_3_links_network.node[0].core_layer 	data[0] 	130997
scalar one_cache_scenario_3_links_network.node[0].core_layer 	repo_int[0] 	130997
scalar one_cache_scenario_3_links_network.node[0].content_store 	p_hit[0] 	0.27268739832659
scalar one_cache_scenario_3_links_network.node[0].content_store 	hits[0] 	49114
scalar one_cache_scenario_3_links_network.node[0].content_store 	misses[0] 	130997
scalar one_cache_scenario_3_links_network.node[0].content_store 	decision_yes[0] 	771
scalar one_cache_scenario_3_links_network.node[0].content_store 	decision_no[0] 	130226
scalar one_cache_scenario_3_links_network.node[0].content_store 	decision_ratio[0] 	0.0058856309686481
scalar one_cache_scenario_3_links_network.node[0].content_store 	correction_factor[0] 	0.010457340948017
scalar one_cache_scenario_3_links_network.node[0].content_store 	xi[0] 	0.9
scalar one_cache_scenario_3_links_network.node[1].core_layer 	interests[1] 	79891
scalar one_cache_scenario_3_links_network.node[1].core_layer 	data[1] 	79891
scalar one_cache_scenario_3_links_network.node[1].content_store 	p_hit[1] 	0
scalar one_cache_scenario_3_links_network.node[1].content_store 	hits[1] 	0
scalar one_cache_scenario_3_links_network.node[1].content_store 	misses[1] 	79891
scalar one_cache_scenario_3_links_network.node[1].content_store 	decision_yes[1] 	0
scalar one_cache_scenario_3_links_network.node[1].content_store 	decision_no[1] 	79891
scalar one_cache_scenario_3_links_network.node[1].content_store 	decision_ratio[1] 	0
scalar one_cache_scenario_3_links_network.node[2].core_layer 	interests[2] 	27159
scalar one_cache_scenario_3_links_network.node[2].core_layer 	data[2] 	27159
scalar one_cache_scenario_3_links_network.node[2].content_store 	p_hit[2] 	0
scalar one_cache_scenario_3_links_network.node[2].content_store 	hits[2] 	0
scalar one_cache_scenario_3_links_network.node[2].content_store 	misses[2] 	27159
scalar one_cache_scenario_3_links_network.node[2].content_store 	decision_yes[2] 	0
scalar one_cache_scenario_3_links_network.node[2].content_store 	decision_no[2] 	27159
scalar one_cache_scenario_3_links_network.node[2].content_store 	decision_ratio[2] 	0
scalar one_cache_scenario_3_links_network.node[3].core_layer 	interests[3] 	23947
scalar one_cache_scenario_3_links_network.node[3].core_layer 	data[3] 	23947
scalar one_cache_scenario_3_links_network.node[3].content_store 	p_hit[3] 	0
scalar one_cache_scenario_3_links_network.node[3].content_store 	hits[3] 	0
scalar one_cache_scenario_3_links_network.node[3].content_store 	misses[3] 	23947
scalar one_cache_scenario_3_links_network.node[3].content_store 	decision_yes[3] 	0
scalar one_cache_scenario_3_links_network.node[3].content_store 	decision_no[3] 	23947
scalar one_cache_scenario_3_links_network.node[3].content_store 	decision_ratio[3] 	0
scalar one_cache_scenario_3_links_network.node[4].core_layer 	interests[4] 	79891
scalar one_cache_scenario_3_links_network.node[4].core_layer 	repo_load[4] 	79891
scalar one_cache_scenario_3_links_network.node[4].core_layer 	data[4] 	0
scalar one_cache_scenario_3_links_network.node[4].content_store 	p_hit[4] 	0
scalar one_cache_scenario_3_links_network.node[4].content_store 	hits[4] 	0
scalar one_cache_scenario_3_links_network.node[4].content_store 	misses[4] 	79891
scalar one_cache_scenario_3_links_network.node[4].content_store 	decision_yes[4] 	0
scalar one_cache_scenario_3_links_network.node[4].content_store 	decision_no[4] 	79891
scalar one_cache_scenario_3_links_network.node[4].content_store 	decision_ratio[4] 	0
scalar one_cache_scenario_3_links_network.node[5].core_layer 	interests[5] 	27159
scalar one_cache_scenario_3_links_network.node[5].core_layer 	repo_load[5] 	27159
scalar one_cache_scenario_3_links_network.node[5].core_layer 	data[5] 	0
scalar one_cache_scenario_3_links_network.node[5].content_store 	p_hit[5] 	0
scalar one_cache_scenario_3_links_network.node[5].content_store 	hits[5] 	0
scalar one_cache_scenario_3_links_network.node[5].content_store 	misses[5] 	27159
scalar one_cache_scenario_3_links_network.node[5].content_store 	decision_yes[5] 	0
scalar one_cache_scenario_3_links_network.node[5].content_store 	decision_no[5] 	27159
scalar one_cache_scenario_3_links_network.node[5].content_store 	decision_ratio[5] 	0
scalar one_cache_scenario_3_links_network.node[6].core_layer 	interests[6] 	23947
scalar one_cache_scenario_3_links_network.node[6].core_layer 	repo_load[6] 	23947
scalar one_cache_scenario_3_links_network.node[6].core_layer 	data[6] 	0
scalar one_cache_scenario_3_links_network.node[6].content_store 	p_hit[6] 	0
scalar one_cache_scenario_3_links_network.node[6].content_store 	hits[6] 	0
scalar one_cache_scenario_3_links_network.node[6].content_store 	misses[6] 	23947
scalar one_cache_scenario_3_links_network.node[6].content_store 	decision_yes[6] 	0
scalar one_cache_scenario_3_links_network.node[6].content_store 	decision_no[6] 	23947
scalar one_cache_scenario_3_links_network.node[6].content_store 	decision_ratio[6] 	0
scalar one_cache_scenario_3_links_network.client[0] 	hdistance[0] 	1.4546252033468
scalar one_cache_scenario_3_links_network.client[0] 	downloads[0] 	180111
scalar one_cache_scenario_3_links_network.client[0] 	avg_time[0] 	0
scalar one_cache_scenario_3_links_network.client[0] 	interests_sent[0] 	180111
