version 2
run General-5-20140902-16:17:12-17264
attr D never
attr F nrr
attr R lru
attr a 1
attr configname General
attr csize 1e3
attr ctlg 1e5
attr datetime 20140902-16:17:12
attr experiment General
attr inifile omnetpp.ini
attr iterationvars "$net=abilene_cost, $rep=7, $priceratiovalue=10, $weights=0.333_0.333_0.334, $lambda=100, $a=1, $ctlg=1e5, $F=nrr, $ttl=10, $D=never, $xi=1, $R=lru, $csize=1e3, $pricebits=0, $window=60, $variance=0.05, $mytime=1800"
attr iterationvars2 "$net=abilene_cost, $rep=7, $priceratiovalue=10, $weights=0.333_0.333_0.334, $lambda=100, $a=1, $ctlg=1e5, $F=nrr, $ttl=10, $D=never, $xi=1, $R=lru, $csize=1e3, $pricebits=0, $window=60, $variance=0.05, $mytime=1800, $repetition=0"
attr lambda 100
attr measurement "$net=abilene_cost, $rep=7, $priceratiovalue=10, $weights=0.333_0.333_0.334, $lambda=100, $a=1, $ctlg=1e5, $F=nrr, $ttl=10, $D=never, $xi=1, $R=lru, $csize=1e3, $pricebits=0, $window=60, $variance=0.05, $mytime=1800"
attr mytime 1800
attr net abilene_cost
attr network networks.${net=abilene_cost}_network
attr pricebits 0
attr priceratiovalue 10
attr processid 17264
attr rep 7
attr repetition 0
attr replication #0
attr resultdir results
attr runnumber 5
attr seedset 7
attr ttl 10
attr variance 0.05
attr weights 0.333_0.333_0.334
attr window 60
attr xi 1

scalar . 	a 	1
scalar . 	csize 	1e3
scalar . 	ctlg 	1e5
scalar . 	lambda 	100
scalar . 	mytime 	1800
scalar . 	pricebits 	0
scalar . 	priceratiovalue 	10
scalar . 	rep 	7
scalar . 	ttl 	10
scalar . 	variance 	0.05
scalar . 	window 	60
scalar . 	xi 	1
scalar abilene_cost_network.content_distribution 	repo-0 	5
scalar abilene_cost_network.content_distribution 	repo-1 	4
scalar abilene_cost_network.content_distribution 	repo-2 	0
scalar abilene_cost_network.content_distribution 	client-0 	6
scalar abilene_cost_network.content_distribution 	client-1 	4
scalar abilene_cost_network.content_distribution 	client-2 	8
scalar abilene_cost_network.content_distribution 	repo-0_card 	33104
scalar abilene_cost_network.content_distribution 	repo-0_price 	10
scalar abilene_cost_network.content_distribution 	repo-1_card 	33509
scalar abilene_cost_network.content_distribution 	repo-1_price 	0
scalar abilene_cost_network.content_distribution 	repo-2_card 	33387
scalar abilene_cost_network.content_distribution 	repo-2_price 	1
scalar abilene_cost_network.statistics 	repo_popularity[0] 	0.32830784336445
scalar abilene_cost_network.statistics 	repo_popularity[1] 	0.32988541312008
scalar abilene_cost_network.statistics 	repo_popularity[2] 	0.34180674351549
scalar abilene_cost_network.statistics 	stabilization_time 	36060
scalar abilene_cost_network.statistics 	p_hit 	0
scalar abilene_cost_network.statistics 	interests 	167147.54545455
scalar abilene_cost_network.statistics 	data 	118083.72727273
scalar abilene_cost_network.statistics 	hdistance 	3.4550244096189
scalar abilene_cost_network.statistics 	avg_time 	0.014233491096
scalar abilene_cost_network.statistics 	downloads 	533050
scalar abilene_cost_network.statistics 	total_cost 	1947420
scalar abilene_cost_network.statistics 	total_replicas 	100000
scalar abilene_cost_network.statistics 	inner_hit 	0.0074308226245193
scalar abilene_cost_network.statistics 	interests_sent 	539709
scalar abilene_cost_network.node[0].core_layer 	interests[0] 	177180
scalar abilene_cost_network.node[0].core_layer 	repo_load[0] 	177180
scalar abilene_cost_network.node[0].core_layer 	data[0] 	0
scalar abilene_cost_network.node[0].core_layer 	repo_int[0] 	529089
scalar abilene_cost_network.node[0].content_store 	p_hit[0] 	0
scalar abilene_cost_network.node[0].content_store 	hits[0] 	0
scalar abilene_cost_network.node[0].content_store 	misses[0] 	177180
scalar abilene_cost_network.node[0].content_store 	decision_yes[0] 	0
scalar abilene_cost_network.node[0].content_store 	decision_no[0] 	177180
scalar abilene_cost_network.node[0].content_store 	decision_ratio[0] 	0
scalar abilene_cost_network.node[1].core_layer 	interests[1] 	177179
scalar abilene_cost_network.node[1].core_layer 	data[1] 	177180
scalar abilene_cost_network.node[1].content_store 	p_hit[1] 	0
scalar abilene_cost_network.node[1].content_store 	hits[1] 	0
scalar abilene_cost_network.node[1].content_store 	misses[1] 	177179
scalar abilene_cost_network.node[1].content_store 	decision_yes[1] 	0
scalar abilene_cost_network.node[1].content_store 	decision_no[1] 	177180
scalar abilene_cost_network.node[1].content_store 	decision_ratio[1] 	0
scalar abilene_cost_network.node[2].core_layer 	interests[2] 	237028
scalar abilene_cost_network.node[2].core_layer 	data[2] 	234750
scalar abilene_cost_network.node[2].content_store 	p_hit[2] 	0
scalar abilene_cost_network.node[2].content_store 	hits[2] 	0
scalar abilene_cost_network.node[2].content_store 	misses[2] 	237028
scalar abilene_cost_network.node[2].content_store 	decision_yes[2] 	0
scalar abilene_cost_network.node[2].content_store 	decision_no[2] 	234750
scalar abilene_cost_network.node[2].content_store 	decision_ratio[2] 	0
scalar abilene_cost_network.node[3].core_layer 	interests[3] 	178003
scalar abilene_cost_network.node[3].core_layer 	data[3] 	176450
scalar abilene_cost_network.node[3].content_store 	p_hit[3] 	0
scalar abilene_cost_network.node[3].content_store 	hits[3] 	0
scalar abilene_cost_network.node[3].content_store 	misses[3] 	178003
scalar abilene_cost_network.node[3].content_store 	decision_yes[3] 	0
scalar abilene_cost_network.node[3].content_store 	decision_no[3] 	176450
scalar abilene_cost_network.node[3].content_store 	decision_ratio[3] 	0
scalar abilene_cost_network.node[4].core_layer 	interests[4] 	294714
scalar abilene_cost_network.node[4].core_layer 	repo_load[4] 	174885
scalar abilene_cost_network.node[4].core_layer 	data[4] 	118684
scalar abilene_cost_network.node[4].content_store 	p_hit[4] 	0
scalar abilene_cost_network.node[4].content_store 	hits[4] 	0
scalar abilene_cost_network.node[4].content_store 	misses[4] 	294714
scalar abilene_cost_network.node[4].content_store 	decision_yes[4] 	0
scalar abilene_cost_network.node[4].content_store 	decision_no[4] 	293569
scalar abilene_cost_network.node[4].content_store 	decision_ratio[4] 	0
scalar abilene_cost_network.node[5].core_layer 	interests[5] 	235047
scalar abilene_cost_network.node[5].core_layer 	repo_load[5] 	177024
scalar abilene_cost_network.node[5].core_layer 	data[5] 	58024
scalar abilene_cost_network.node[5].content_store 	p_hit[5] 	0
scalar abilene_cost_network.node[5].content_store 	hits[5] 	0
scalar abilene_cost_network.node[5].content_store 	misses[5] 	235047
scalar abilene_cost_network.node[5].content_store 	decision_yes[5] 	0
scalar abilene_cost_network.node[5].content_store 	decision_no[5] 	235048
scalar abilene_cost_network.node[5].content_store 	decision_ratio[5] 	0
scalar abilene_cost_network.node[6].core_layer 	interests[6] 	239375
scalar abilene_cost_network.node[6].core_layer 	data[6] 	236799
scalar abilene_cost_network.node[6].content_store 	p_hit[6] 	0
scalar abilene_cost_network.node[6].content_store 	hits[6] 	0
scalar abilene_cost_network.node[6].content_store 	misses[6] 	239375
scalar abilene_cost_network.node[6].content_store 	decision_yes[6] 	0
scalar abilene_cost_network.node[6].content_store 	decision_no[6] 	236799
scalar abilene_cost_network.node[6].content_store 	decision_ratio[6] 	0
scalar abilene_cost_network.node[7].core_layer 	interests[7] 	119622
scalar abilene_cost_network.node[7].core_layer 	data[7] 	119622
scalar abilene_cost_network.node[7].content_store 	p_hit[7] 	0
scalar abilene_cost_network.node[7].content_store 	hits[7] 	0
scalar abilene_cost_network.node[7].content_store 	misses[7] 	119622
scalar abilene_cost_network.node[7].content_store 	decision_yes[7] 	0
scalar abilene_cost_network.node[7].content_store 	decision_no[7] 	119622
scalar abilene_cost_network.node[7].content_store 	decision_ratio[7] 	0
scalar abilene_cost_network.node[8].core_layer 	interests[8] 	180475
scalar abilene_cost_network.node[8].core_layer 	data[8] 	177412
scalar abilene_cost_network.node[8].content_store 	p_hit[8] 	0
scalar abilene_cost_network.node[8].content_store 	hits[8] 	0
scalar abilene_cost_network.node[8].content_store 	misses[8] 	180475
scalar abilene_cost_network.node[8].content_store 	decision_yes[8] 	0
scalar abilene_cost_network.node[8].content_store 	decision_no[8] 	177412
scalar abilene_cost_network.node[8].content_store 	decision_ratio[8] 	0
scalar abilene_cost_network.node[9].core_layer 	interests[9] 	0
scalar abilene_cost_network.node[9].core_layer 	data[9] 	0
scalar abilene_cost_network.node[9].content_store 	p_hit[9] 	-nan
scalar abilene_cost_network.node[9].content_store 	hits[9] 	0
scalar abilene_cost_network.node[9].content_store 	misses[9] 	0
scalar abilene_cost_network.node[9].content_store 	decision_yes[9] 	0
scalar abilene_cost_network.node[9].content_store 	decision_no[9] 	0
scalar abilene_cost_network.node[9].content_store 	decision_ratio[9] 	0
scalar abilene_cost_network.node[10].core_layer 	interests[10] 	0
scalar abilene_cost_network.node[10].core_layer 	data[10] 	0
scalar abilene_cost_network.node[10].content_store 	p_hit[10] 	-nan
scalar abilene_cost_network.node[10].content_store 	hits[10] 	0
scalar abilene_cost_network.node[10].content_store 	misses[10] 	0
scalar abilene_cost_network.node[10].content_store 	decision_yes[10] 	0
scalar abilene_cost_network.node[10].content_store 	decision_no[10] 	0
scalar abilene_cost_network.node[10].content_store 	decision_ratio[10] 	0
scalar abilene_cost_network.client[4] 	hdistance[4] 	2.6794904931002
scalar abilene_cost_network.client[4] 	downloads[4] 	177976
scalar abilene_cost_network.client[4] 	avg_time[4] 	0.010388812313
scalar abilene_cost_network.client[4] 	interests_sent[4] 	179121
scalar abilene_cost_network.client[6] 	hdistance[6] 	3.6855827357567
scalar abilene_cost_network.client[6] 	downloads[6] 	177662
scalar abilene_cost_network.client[6] 	avg_time[6] 	0.014755315751
scalar abilene_cost_network.client[6] 	interests_sent[6] 	180113
scalar abilene_cost_network.client[8] 	hdistance[8] 	4
scalar abilene_cost_network.client[8] 	downloads[8] 	177412
scalar abilene_cost_network.client[8] 	avg_time[8] 	0.017556345225
scalar abilene_cost_network.client[8] 	interests_sent[8] 	180475
