version 2
run General-5-20141007-11:11:55-15310
attr D fix0.5
attr F spr
attr R lru
attr a 1
attr configname General
attr csize 1e3
attr ctlg 1e5
attr datetime 20141007-11:11:55
attr experiment General
attr inifile omnetpp.ini
attr iterationvars "$net=abilene_cost, $rep=2, $priceratiovalue=10, $weights=0.333_0.333_0.334, $lambda=100, $a=1, $ctlg=1e5, $F=spr, $ttl=10, $D=fix0.5, $xi=1, $R=lru, $csize=1e3, $pricebits=0, $window=60, $variance=0.05, $mytime=1800"
attr iterationvars2 "$net=abilene_cost, $rep=2, $priceratiovalue=10, $weights=0.333_0.333_0.334, $lambda=100, $a=1, $ctlg=1e5, $F=spr, $ttl=10, $D=fix0.5, $xi=1, $R=lru, $csize=1e3, $pricebits=0, $window=60, $variance=0.05, $mytime=1800, $repetition=0"
attr lambda 100
attr measurement "$net=abilene_cost, $rep=2, $priceratiovalue=10, $weights=0.333_0.333_0.334, $lambda=100, $a=1, $ctlg=1e5, $F=spr, $ttl=10, $D=fix0.5, $xi=1, $R=lru, $csize=1e3, $pricebits=0, $window=60, $variance=0.05, $mytime=1800"
attr mytime 1800
attr net abilene_cost
attr network networks.${net=abilene_cost,geant_cost}_network
attr pricebits 0
attr priceratiovalue 10
attr processid 15310
attr rep 2
attr repetition 0
attr replication #0
attr resultdir results
attr runnumber 5
attr seedset 2
attr ttl 10
attr variance 0.05
attr weights 0.333_0.333_0.334
attr window 60
attr xi 1

scalar . 	a 	1
scalar . 	csize 	1e3
scalar . 	ctlg 	1e5
scalar . 	lambda 	100
scalar . 	mytime 	1800
scalar . 	pricebits 	0
scalar . 	priceratiovalue 	10
scalar . 	rep 	2
scalar . 	ttl 	10
scalar . 	variance 	0.05
scalar . 	window 	60
scalar . 	xi 	1
scalar abilene_cost_network.content_distribution 	repo-0 	4
scalar abilene_cost_network.content_distribution 	repo-1 	9
scalar abilene_cost_network.content_distribution 	repo-2 	6
scalar abilene_cost_network.content_distribution 	client-0 	3
scalar abilene_cost_network.content_distribution 	client-1 	7
scalar abilene_cost_network.content_distribution 	client-2 	9
scalar abilene_cost_network.content_distribution 	repo-0_card 	33329
scalar abilene_cost_network.content_distribution 	repo-0_price 	1
scalar abilene_cost_network.content_distribution 	repo-1_card 	33052
scalar abilene_cost_network.content_distribution 	repo-1_price 	10
scalar abilene_cost_network.content_distribution 	repo-2_card 	33619
scalar abilene_cost_network.content_distribution 	repo-2_price 	0
scalar abilene_cost_network.statistics 	repo_popularity[0] 	0.33984204835506
scalar abilene_cost_network.statistics 	repo_popularity[1] 	0.39407385110283
scalar abilene_cost_network.statistics 	repo_popularity[2] 	0.26608410054213
scalar abilene_cost_network.statistics 	stabilization_time 	36060
scalar abilene_cost_network.statistics 	p_hit 	0.16156680189075
scalar abilene_cost_network.statistics 	interests 	116663.81818182
scalar abilene_cost_network.statistics 	data 	67580.818181818
scalar abilene_cost_network.statistics 	hdistance 	1.99401763295
scalar abilene_cost_network.statistics 	avg_time 	0.010052313175
scalar abilene_cost_network.statistics 	downloads 	539482
scalar abilene_cost_network.statistics 	total_cost 	1297398
scalar abilene_cost_network.statistics 	total_replicas 	100000
scalar abilene_cost_network.statistics 	inner_hit 	0.38453738956999
scalar abilene_cost_network.node[0].core_layer 	interests[0] 	0
scalar abilene_cost_network.node[0].core_layer 	data[0] 	0
scalar abilene_cost_network.node[0].core_layer 	repo_int[0] 	332031
scalar abilene_cost_network.node[0].content_store 	p_hit[0] 	-nan
scalar abilene_cost_network.node[0].content_store 	hits[0] 	0
scalar abilene_cost_network.node[0].content_store 	misses[0] 	0
scalar abilene_cost_network.node[0].content_store 	decision_yes[0] 	0
scalar abilene_cost_network.node[0].content_store 	decision_no[0] 	0
scalar abilene_cost_network.node[0].content_store 	decision_ratio[0] 	0
scalar abilene_cost_network.node[1].core_layer 	interests[1] 	0
scalar abilene_cost_network.node[1].core_layer 	data[1] 	0
scalar abilene_cost_network.node[1].content_store 	p_hit[1] 	-nan
scalar abilene_cost_network.node[1].content_store 	hits[1] 	0
scalar abilene_cost_network.node[1].content_store 	misses[1] 	0
scalar abilene_cost_network.node[1].content_store 	decision_yes[1] 	0
scalar abilene_cost_network.node[1].content_store 	decision_no[1] 	0
scalar abilene_cost_network.node[1].content_store 	decision_ratio[1] 	0
scalar abilene_cost_network.node[2].core_layer 	interests[2] 	87273
scalar abilene_cost_network.node[2].core_layer 	data[2] 	80254
scalar abilene_cost_network.node[2].content_store 	p_hit[2] 	0.080414332038546
scalar abilene_cost_network.node[2].content_store 	hits[2] 	7018
scalar abilene_cost_network.node[2].content_store 	misses[2] 	80255
scalar abilene_cost_network.node[2].content_store 	decision_yes[2] 	40091
scalar abilene_cost_network.node[2].content_store 	decision_no[2] 	40163
scalar abilene_cost_network.node[2].content_store 	decision_ratio[2] 	0.49955142422808
scalar abilene_cost_network.node[3].core_layer 	interests[3] 	262552
scalar abilene_cost_network.node[3].core_layer 	data[3] 	203640
scalar abilene_cost_network.node[3].content_store 	p_hit[3] 	0.22387565129955
scalar abilene_cost_network.node[3].content_store 	hits[3] 	58779
scalar abilene_cost_network.node[3].content_store 	misses[3] 	203773
scalar abilene_cost_network.node[3].content_store 	decision_yes[3] 	101580
scalar abilene_cost_network.node[3].content_store 	decision_no[3] 	102060
scalar abilene_cost_network.node[3].content_store 	decision_ratio[3] 	0.49882144961697
scalar abilene_cost_network.node[4].core_layer 	interests[4] 	114068
scalar abilene_cost_network.node[4].core_layer 	repo_load[4] 	105198
scalar abilene_cost_network.node[4].core_layer 	data[4] 	0
scalar abilene_cost_network.node[4].content_store 	p_hit[4] 	0.077760634007785
scalar abilene_cost_network.node[4].content_store 	hits[4] 	8870
scalar abilene_cost_network.node[4].content_store 	misses[4] 	105198
scalar abilene_cost_network.node[4].content_store 	decision_yes[4] 	52374
scalar abilene_cost_network.node[4].content_store 	decision_no[4] 	52824
scalar abilene_cost_network.node[4].content_store 	decision_ratio[4] 	0.49786117606799
scalar abilene_cost_network.node[5].core_layer 	interests[5] 	0
scalar abilene_cost_network.node[5].core_layer 	data[5] 	0
scalar abilene_cost_network.node[5].content_store 	p_hit[5] 	-nan
scalar abilene_cost_network.node[5].content_store 	hits[5] 	0
scalar abilene_cost_network.node[5].content_store 	misses[5] 	0
scalar abilene_cost_network.node[5].content_store 	decision_yes[5] 	0
scalar abilene_cost_network.node[5].content_store 	decision_no[5] 	0
scalar abilene_cost_network.node[5].content_store 	decision_ratio[5] 	0
scalar abilene_cost_network.node[6].core_layer 	interests[6] 	117658
scalar abilene_cost_network.node[6].core_layer 	repo_load[6] 	107613
scalar abilene_cost_network.node[6].core_layer 	data[6] 	0
scalar abilene_cost_network.node[6].content_store 	p_hit[6] 	0.085374560165905
scalar abilene_cost_network.node[6].content_store 	hits[6] 	10045
scalar abilene_cost_network.node[6].content_store 	misses[6] 	107613
scalar abilene_cost_network.node[6].content_store 	decision_yes[6] 	53990
scalar abilene_cost_network.node[6].content_store 	decision_no[6] 	53623
scalar abilene_cost_network.node[6].content_store 	decision_ratio[6] 	0.50170518431788
scalar abilene_cost_network.node[7].core_layer 	interests[7] 	266406
scalar abilene_cost_network.node[7].core_layer 	data[7] 	207058
scalar abilene_cost_network.node[7].content_store 	p_hit[7] 	0.22206331689226
scalar abilene_cost_network.node[7].content_store 	hits[7] 	59159
scalar abilene_cost_network.node[7].content_store 	misses[7] 	207247
scalar abilene_cost_network.node[7].content_store 	decision_yes[7] 	103567
scalar abilene_cost_network.node[7].content_store 	decision_no[7] 	103491
scalar abilene_cost_network.node[7].content_store 	decision_ratio[7] 	0.5001835234572
scalar abilene_cost_network.node[8].core_layer 	interests[8] 	174456
scalar abilene_cost_network.node[8].core_layer 	data[8] 	164884
scalar abilene_cost_network.node[8].content_store 	p_hit[8] 	0.054655615169441
scalar abilene_cost_network.node[8].content_store 	hits[8] 	9535
scalar abilene_cost_network.node[8].content_store 	misses[8] 	164921
scalar abilene_cost_network.node[8].content_store 	decision_yes[8] 	82261
scalar abilene_cost_network.node[8].content_store 	decision_no[8] 	82623
scalar abilene_cost_network.node[8].content_store 	decision_ratio[8] 	0.49890225855753
scalar abilene_cost_network.node[9].core_layer 	interests[9] 	260889
scalar abilene_cost_network.node[9].core_layer 	repo_load[9] 	119220
scalar abilene_cost_network.node[9].core_layer 	data[9] 	87553
scalar abilene_cost_network.node[9].content_store 	p_hit[9] 	0.20672776544814
scalar abilene_cost_network.node[9].content_store 	hits[9] 	53933
scalar abilene_cost_network.node[9].content_store 	misses[9] 	206956
scalar abilene_cost_network.node[9].content_store 	decision_yes[9] 	103762
scalar abilene_cost_network.node[9].content_store 	decision_no[9] 	103011
scalar abilene_cost_network.node[9].content_store 	decision_ratio[9] 	0.501816001122
scalar abilene_cost_network.node[10].core_layer 	interests[10] 	0
scalar abilene_cost_network.node[10].core_layer 	data[10] 	0
scalar abilene_cost_network.node[10].content_store 	p_hit[10] 	-nan
scalar abilene_cost_network.node[10].content_store 	hits[10] 	0
scalar abilene_cost_network.node[10].content_store 	misses[10] 	0
scalar abilene_cost_network.node[10].content_store 	decision_yes[10] 	0
scalar abilene_cost_network.node[10].content_store 	decision_no[10] 	0
scalar abilene_cost_network.node[10].content_store 	decision_ratio[10] 	0
scalar abilene_cost_network.client[3] 	hdistance[3] 	1.9889583321739
scalar abilene_cost_network.client[3] 	downloads[3] 	179683
scalar abilene_cost_network.client[3] 	avg_time[3] 	0.008806245154
scalar abilene_cost_network.client[7] 	hdistance[7] 	1.7798817881622
scalar abilene_cost_network.client[7] 	downloads[7] 	180185
scalar abilene_cost_network.client[7] 	avg_time[7] 	0.008137216842
scalar abilene_cost_network.client[9] 	hdistance[9] 	2.2132127785139
scalar abilene_cost_network.client[9] 	downloads[9] 	179614
scalar abilene_cost_network.client[9] 	avg_time[9] 	0.013213477529
