version 2
run General-5-20141007-11:38:16-22058
attr D fix0.5
attr F spr
attr R lru
attr a 1
attr configname General
attr csize 1e3
attr ctlg 1e5
attr datetime 20141007-11:38:16
attr experiment General
attr inifile omnetpp.ini
attr iterationvars "$net=abilene_cost, $rep=3, $priceratiovalue=10, $weights=0.333_0.333_0.334, $lambda=100, $a=1, $ctlg=1e5, $F=spr, $ttl=10, $D=fix0.5, $xi=1, $R=lru, $csize=1e3, $pricebits=0, $window=60, $variance=0.05, $mytime=1800"
attr iterationvars2 "$net=abilene_cost, $rep=3, $priceratiovalue=10, $weights=0.333_0.333_0.334, $lambda=100, $a=1, $ctlg=1e5, $F=spr, $ttl=10, $D=fix0.5, $xi=1, $R=lru, $csize=1e3, $pricebits=0, $window=60, $variance=0.05, $mytime=1800, $repetition=0"
attr lambda 100
attr measurement "$net=abilene_cost, $rep=3, $priceratiovalue=10, $weights=0.333_0.333_0.334, $lambda=100, $a=1, $ctlg=1e5, $F=spr, $ttl=10, $D=fix0.5, $xi=1, $R=lru, $csize=1e3, $pricebits=0, $window=60, $variance=0.05, $mytime=1800"
attr mytime 1800
attr net abilene_cost
attr network networks.${net=abilene_cost,geant_cost}_network
attr pricebits 0
attr priceratiovalue 10
attr processid 22058
attr rep 3
attr repetition 0
attr replication #0
attr resultdir results
attr runnumber 5
attr seedset 3
attr ttl 10
attr variance 0.05
attr weights 0.333_0.333_0.334
attr window 60
attr xi 1

scalar . 	a 	1
scalar . 	csize 	1e3
scalar . 	ctlg 	1e5
scalar . 	lambda 	100
scalar . 	mytime 	1800
scalar . 	pricebits 	0
scalar . 	priceratiovalue 	10
scalar . 	rep 	3
scalar . 	ttl 	10
scalar . 	variance 	0.05
scalar . 	window 	60
scalar . 	xi 	1
scalar abilene_cost_network.content_distribution 	repo-0 	9
scalar abilene_cost_network.content_distribution 	repo-1 	4
scalar abilene_cost_network.content_distribution 	repo-2 	0
scalar abilene_cost_network.content_distribution 	client-0 	9
scalar abilene_cost_network.content_distribution 	client-1 	0
scalar abilene_cost_network.content_distribution 	client-2 	1
scalar abilene_cost_network.content_distribution 	repo-0_card 	33498
scalar abilene_cost_network.content_distribution 	repo-0_price 	0
scalar abilene_cost_network.content_distribution 	repo-1_card 	33168
scalar abilene_cost_network.content_distribution 	repo-1_price 	10
scalar abilene_cost_network.content_distribution 	repo-2_card 	33334
scalar abilene_cost_network.content_distribution 	repo-2_price 	1
scalar abilene_cost_network.statistics 	repo_popularity[0] 	0.34820484875244
scalar abilene_cost_network.statistics 	repo_popularity[1] 	0.25519349814637
scalar abilene_cost_network.statistics 	repo_popularity[2] 	0.3966016531012
scalar abilene_cost_network.statistics 	stabilization_time 	36060
scalar abilene_cost_network.statistics 	p_hit 	0.16416458926662
scalar abilene_cost_network.statistics 	interests 	113669.18181818
scalar abilene_cost_network.statistics 	data 	64669.909090909
scalar abilene_cost_network.statistics 	hdistance 	1.9398439223641
scalar abilene_cost_network.statistics 	avg_time 	0.00842098532
scalar abilene_cost_network.statistics 	downloads 	538643
scalar abilene_cost_network.statistics 	total_cost 	1124719
scalar abilene_cost_network.statistics 	total_replicas 	100000
scalar abilene_cost_network.statistics 	inner_hit 	0.38118568328188
scalar abilene_cost_network.node[0].core_layer 	interests[0] 	261796
scalar abilene_cost_network.node[0].core_layer 	repo_load[0] 	112529
scalar abilene_cost_network.node[0].core_layer 	data[0] 	89476
scalar abilene_cost_network.node[0].core_layer 	repo_int[0] 	333320
scalar abilene_cost_network.node[0].content_store 	p_hit[0] 	0.22790646151966
scalar abilene_cost_network.node[0].content_store 	hits[0] 	59665
scalar abilene_cost_network.node[0].content_store 	misses[0] 	202131
scalar abilene_cost_network.node[0].content_store 	decision_yes[0] 	100587
scalar abilene_cost_network.node[0].content_store 	decision_no[0] 	101418
scalar abilene_cost_network.node[0].content_store 	decision_ratio[0] 	0.4979431202198
scalar abilene_cost_network.node[1].core_layer 	interests[1] 	222943
scalar abilene_cost_network.node[1].core_layer 	data[1] 	167819
scalar abilene_cost_network.node[1].content_store 	p_hit[1] 	0.24652938194965
scalar abilene_cost_network.node[1].content_store 	hits[1] 	54962
scalar abilene_cost_network.node[1].content_store 	misses[1] 	167981
scalar abilene_cost_network.node[1].content_store 	decision_yes[1] 	83621
scalar abilene_cost_network.node[1].content_store 	decision_no[1] 	84198
scalar abilene_cost_network.node[1].content_store 	decision_ratio[1] 	0.49828088595451
scalar abilene_cost_network.node[2].core_layer 	interests[2] 	116553
scalar abilene_cost_network.node[2].core_layer 	data[2] 	106835
scalar abilene_cost_network.node[2].content_store 	p_hit[2] 	0.083249680402907
scalar abilene_cost_network.node[2].content_store 	hits[2] 	9703
scalar abilene_cost_network.node[2].content_store 	misses[2] 	106850
scalar abilene_cost_network.node[2].content_store 	decision_yes[2] 	53402
scalar abilene_cost_network.node[2].content_store 	decision_no[2] 	53433
scalar abilene_cost_network.node[2].content_store 	decision_ratio[2] 	0.49985491645996
scalar abilene_cost_network.node[3].core_layer 	interests[3] 	106836
scalar abilene_cost_network.node[3].core_layer 	data[3] 	103104
scalar abilene_cost_network.node[3].content_store 	p_hit[3] 	0.034941405518739
scalar abilene_cost_network.node[3].content_store 	hits[3] 	3733
scalar abilene_cost_network.node[3].content_store 	misses[3] 	103103
scalar abilene_cost_network.node[3].content_store 	decision_yes[3] 	51420
scalar abilene_cost_network.node[3].content_store 	decision_no[3] 	51684
scalar abilene_cost_network.node[3].content_store 	decision_ratio[3] 	0.49871973929237
scalar abilene_cost_network.node[4].core_layer 	interests[4] 	103104
scalar abilene_cost_network.node[4].core_layer 	repo_load[4] 	101219
scalar abilene_cost_network.node[4].core_layer 	data[4] 	0
scalar abilene_cost_network.node[4].content_store 	p_hit[4] 	0.018282510862818
scalar abilene_cost_network.node[4].content_store 	hits[4] 	1885
scalar abilene_cost_network.node[4].content_store 	misses[4] 	101219
scalar abilene_cost_network.node[4].content_store 	decision_yes[4] 	50577
scalar abilene_cost_network.node[4].content_store 	decision_no[4] 	50642
scalar abilene_cost_network.node[4].content_store 	decision_ratio[4] 	0.49967891403788
scalar abilene_cost_network.node[5].core_layer 	interests[5] 	0
scalar abilene_cost_network.node[5].core_layer 	data[5] 	0
scalar abilene_cost_network.node[5].content_store 	p_hit[5] 	-nan
scalar abilene_cost_network.node[5].content_store 	hits[5] 	0
scalar abilene_cost_network.node[5].content_store 	misses[5] 	0
scalar abilene_cost_network.node[5].content_store 	decision_yes[5] 	0
scalar abilene_cost_network.node[5].content_store 	decision_no[5] 	0
scalar abilene_cost_network.node[5].content_store 	decision_ratio[5] 	0
scalar abilene_cost_network.node[6].core_layer 	interests[6] 	0
scalar abilene_cost_network.node[6].core_layer 	data[6] 	0
scalar abilene_cost_network.node[6].content_store 	p_hit[6] 	-nan
scalar abilene_cost_network.node[6].content_store 	hits[6] 	0
scalar abilene_cost_network.node[6].content_store 	misses[6] 	0
scalar abilene_cost_network.node[6].content_store 	decision_yes[6] 	0
scalar abilene_cost_network.node[6].content_store 	decision_no[6] 	0
scalar abilene_cost_network.node[6].content_store 	decision_ratio[6] 	0
scalar abilene_cost_network.node[7].core_layer 	interests[7] 	0
scalar abilene_cost_network.node[7].core_layer 	data[7] 	0
scalar abilene_cost_network.node[7].content_store 	p_hit[7] 	-nan
scalar abilene_cost_network.node[7].content_store 	hits[7] 	0
scalar abilene_cost_network.node[7].content_store 	misses[7] 	0
scalar abilene_cost_network.node[7].content_store 	decision_yes[7] 	0
scalar abilene_cost_network.node[7].content_store 	decision_no[7] 	0
scalar abilene_cost_network.node[7].content_store 	decision_ratio[7] 	0
scalar abilene_cost_network.node[8].core_layer 	interests[8] 	43278
scalar abilene_cost_network.node[8].core_layer 	data[8] 	36163
scalar abilene_cost_network.node[8].content_store 	p_hit[8] 	0.16440223670225
scalar abilene_cost_network.node[8].content_store 	hits[8] 	7115
scalar abilene_cost_network.node[8].content_store 	misses[8] 	36163
scalar abilene_cost_network.node[8].content_store 	decision_yes[8] 	18091
scalar abilene_cost_network.node[8].content_store 	decision_no[8] 	18072
scalar abilene_cost_network.node[8].content_store 	decision_ratio[8] 	0.50026269944418
scalar abilene_cost_network.node[9].core_layer 	interests[9] 	260886
scalar abilene_cost_network.node[9].core_layer 	repo_load[9] 	119572
scalar abilene_cost_network.node[9].core_layer 	data[9] 	86802
scalar abilene_cost_network.node[9].content_store 	p_hit[9] 	0.20858535912238
scalar abilene_cost_network.node[9].content_store 	hits[9] 	54417
scalar abilene_cost_network.node[9].content_store 	misses[9] 	206469
scalar abilene_cost_network.node[9].content_store 	decision_yes[9] 	103484
scalar abilene_cost_network.node[9].content_store 	decision_no[9] 	102890
scalar abilene_cost_network.node[9].content_store 	decision_ratio[9] 	0.50143913477473
scalar abilene_cost_network.node[10].core_layer 	interests[10] 	134965
scalar abilene_cost_network.node[10].core_layer 	data[10] 	121170
scalar abilene_cost_network.node[10].content_store 	p_hit[10] 	0.10213759122736
scalar abilene_cost_network.node[10].content_store 	hits[10] 	13785
scalar abilene_cost_network.node[10].content_store 	misses[10] 	121180
scalar abilene_cost_network.node[10].content_store 	decision_yes[10] 	60772
scalar abilene_cost_network.node[10].content_store 	decision_no[10] 	60398
scalar abilene_cost_network.node[10].content_store 	decision_ratio[10] 	0.50154328629199
scalar abilene_cost_network.client[0] 	hdistance[0] 	1.9725377835863
scalar abilene_cost_network.client[0] 	downloads[0] 	179046
scalar abilene_cost_network.client[0] 	avg_time[0] 	0.008037057115
scalar abilene_cost_network.client[1] 	hdistance[1] 	1.9510092713757
scalar abilene_cost_network.client[1] 	downloads[1] 	179585
scalar abilene_cost_network.client[1] 	avg_time[1] 	0.008548720923
scalar abilene_cost_network.client[9] 	hdistance[9] 	1.8959847121303
scalar abilene_cost_network.client[9] 	downloads[9] 	180012
scalar abilene_cost_network.client[9] 	avg_time[9] 	0.008677177924
