version 2
run General-5-20141007-10:55:54-14867
attr D fix0.5
attr F spr
attr R lru
attr a 1
attr configname General
attr csize 1e3
attr ctlg 1e5
attr datetime 20141007-10:55:54
attr experiment General
attr inifile omnetpp.ini
attr iterationvars "$net=abilene_cost, $rep=5, $priceratiovalue=10, $weights=0.333_0.333_0.334, $lambda=100, $a=1, $ctlg=1e5, $F=spr, $ttl=10, $D=fix0.5, $xi=1, $R=lru, $csize=1e3, $pricebits=0, $window=60, $variance=0.05, $mytime=1800"
attr iterationvars2 "$net=abilene_cost, $rep=5, $priceratiovalue=10, $weights=0.333_0.333_0.334, $lambda=100, $a=1, $ctlg=1e5, $F=spr, $ttl=10, $D=fix0.5, $xi=1, $R=lru, $csize=1e3, $pricebits=0, $window=60, $variance=0.05, $mytime=1800, $repetition=0"
attr lambda 100
attr measurement "$net=abilene_cost, $rep=5, $priceratiovalue=10, $weights=0.333_0.333_0.334, $lambda=100, $a=1, $ctlg=1e5, $F=spr, $ttl=10, $D=fix0.5, $xi=1, $R=lru, $csize=1e3, $pricebits=0, $window=60, $variance=0.05, $mytime=1800"
attr mytime 1800
attr net abilene_cost
attr network networks.${net=abilene_cost,geant_cost}_network
attr pricebits 0
attr priceratiovalue 10
attr processid 14867
attr rep 5
attr repetition 0
attr replication #0
attr resultdir results
attr runnumber 5
attr seedset 5
attr ttl 10
attr variance 0.05
attr weights 0.333_0.333_0.334
attr window 60
attr xi 1

scalar . 	a 	1
scalar . 	csize 	1e3
scalar . 	ctlg 	1e5
scalar . 	lambda 	100
scalar . 	mytime 	1800
scalar . 	pricebits 	0
scalar . 	priceratiovalue 	10
scalar . 	rep 	5
scalar . 	ttl 	10
scalar . 	variance 	0.05
scalar . 	window 	60
scalar . 	xi 	1
scalar abilene_cost_network.content_distribution 	repo-0 	9
scalar abilene_cost_network.content_distribution 	repo-1 	5
scalar abilene_cost_network.content_distribution 	repo-2 	1
scalar abilene_cost_network.content_distribution 	client-0 	4
scalar abilene_cost_network.content_distribution 	client-1 	9
scalar abilene_cost_network.content_distribution 	client-2 	0
scalar abilene_cost_network.content_distribution 	repo-0_card 	33098
scalar abilene_cost_network.content_distribution 	repo-0_price 	1
scalar abilene_cost_network.content_distribution 	repo-1_card 	33495
scalar abilene_cost_network.content_distribution 	repo-1_price 	10
scalar abilene_cost_network.content_distribution 	repo-2_card 	33407
scalar abilene_cost_network.content_distribution 	repo-2_price 	0
scalar abilene_cost_network.statistics 	repo_popularity[0] 	0.31037770261398
scalar abilene_cost_network.statistics 	repo_popularity[1] 	0.29913869324176
scalar abilene_cost_network.statistics 	repo_popularity[2] 	0.39048360414427
scalar abilene_cost_network.statistics 	stabilization_time 	69
scalar abilene_cost_network.statistics 	p_hit 	0.14327627166015
scalar abilene_cost_network.statistics 	interests 	130109.09090909
scalar abilene_cost_network.statistics 	data 	81005.909090909
scalar abilene_cost_network.statistics 	hdistance 	2.2703952695182
scalar abilene_cost_network.statistics 	avg_time 	0.010916212021
scalar abilene_cost_network.statistics 	downloads 	539743
scalar abilene_cost_network.statistics 	total_cost 	1159272
scalar abilene_cost_network.statistics 	total_replicas 	100000
scalar abilene_cost_network.statistics 	inner_hit 	0.3799326716604
scalar abilene_cost_network.node[0].core_layer 	interests[0] 	180825
scalar abilene_cost_network.node[0].core_layer 	data[0] 	126586
scalar abilene_cost_network.node[0].core_layer 	repo_int[0] 	334677
scalar abilene_cost_network.node[0].content_store 	p_hit[0] 	0.29912899211945
scalar abilene_cost_network.node[0].content_store 	hits[0] 	54090
scalar abilene_cost_network.node[0].content_store 	misses[0] 	126735
scalar abilene_cost_network.node[0].content_store 	decision_yes[0] 	62883
scalar abilene_cost_network.node[0].content_store 	decision_no[0] 	63703
scalar abilene_cost_network.node[0].content_store 	decision_ratio[0] 	0.4967610952238
scalar abilene_cost_network.node[1].core_layer 	interests[1] 	165859
scalar abilene_cost_network.node[1].core_layer 	repo_load[1] 	114546
scalar abilene_cost_network.node[1].core_layer 	data[1] 	40377
scalar abilene_cost_network.node[1].content_store 	p_hit[1] 	0.065935523547109
scalar abilene_cost_network.node[1].content_store 	hits[1] 	10936
scalar abilene_cost_network.node[1].content_store 	misses[1] 	154923
scalar abilene_cost_network.node[1].content_store 	decision_yes[1] 	77578
scalar abilene_cost_network.node[1].content_store 	decision_no[1] 	77345
scalar abilene_cost_network.node[1].content_store 	decision_ratio[1] 	0.5007519864707
scalar abilene_cost_network.node[2].core_layer 	interests[2] 	123689
scalar abilene_cost_network.node[2].core_layer 	data[2] 	121158
scalar abilene_cost_network.node[2].content_store 	p_hit[2] 	0.02047069666664
scalar abilene_cost_network.node[2].content_store 	hits[2] 	2532
scalar abilene_cost_network.node[2].content_store 	misses[2] 	121157
scalar abilene_cost_network.node[2].content_store 	decision_yes[2] 	60664
scalar abilene_cost_network.node[2].content_store 	decision_no[2] 	60494
scalar abilene_cost_network.node[2].content_store 	decision_ratio[2] 	0.50070156324799
scalar abilene_cost_network.node[3].core_layer 	interests[3] 	127539
scalar abilene_cost_network.node[3].core_layer 	data[3] 	122550
scalar abilene_cost_network.node[3].content_store 	p_hit[3] 	0.039117446428151
scalar abilene_cost_network.node[3].content_store 	hits[3] 	4989
scalar abilene_cost_network.node[3].content_store 	misses[3] 	122550
scalar abilene_cost_network.node[3].content_store 	decision_yes[3] 	61710
scalar abilene_cost_network.node[3].content_store 	decision_no[3] 	60840
scalar abilene_cost_network.node[3].content_store 	decision_ratio[3] 	0.50354957160343
scalar abilene_cost_network.node[4].core_layer 	interests[4] 	219244
scalar abilene_cost_network.node[4].core_layer 	data[4] 	165866
scalar abilene_cost_network.node[4].content_store 	p_hit[4] 	0.24283446753389
scalar abilene_cost_network.node[4].content_store 	hits[4] 	53240
scalar abilene_cost_network.node[4].content_store 	misses[4] 	166004
scalar abilene_cost_network.node[4].content_store 	decision_yes[4] 	82715
scalar abilene_cost_network.node[4].content_store 	decision_no[4] 	83151
scalar abilene_cost_network.node[4].content_store 	decision_ratio[4] 	0.49868568603572
scalar abilene_cost_network.node[5].core_layer 	interests[5] 	111885
scalar abilene_cost_network.node[5].core_layer 	repo_load[5] 	104349
scalar abilene_cost_network.node[5].core_layer 	data[5] 	0
scalar abilene_cost_network.node[5].content_store 	p_hit[5] 	0.067354873307414
scalar abilene_cost_network.node[5].content_store 	hits[5] 	7536
scalar abilene_cost_network.node[5].content_store 	misses[5] 	104349
scalar abilene_cost_network.node[5].content_store 	decision_yes[5] 	51717
scalar abilene_cost_network.node[5].content_store 	decision_no[5] 	52632
scalar abilene_cost_network.node[5].content_store 	decision_ratio[5] 	0.49561567432366
scalar abilene_cost_network.node[6].core_layer 	interests[6] 	35184
scalar abilene_cost_network.node[6].core_layer 	data[6] 	33964
scalar abilene_cost_network.node[6].content_store 	p_hit[6] 	0.034674852205548
scalar abilene_cost_network.node[6].content_store 	hits[6] 	1220
scalar abilene_cost_network.node[6].content_store 	misses[6] 	33964
scalar abilene_cost_network.node[6].content_store 	decision_yes[6] 	17065
scalar abilene_cost_network.node[6].content_store 	decision_no[6] 	16899
scalar abilene_cost_network.node[6].content_store 	decision_ratio[6] 	0.5024437639854
scalar abilene_cost_network.node[7].core_layer 	interests[7] 	38508
scalar abilene_cost_network.node[7].core_layer 	data[7] 	35184
scalar abilene_cost_network.node[7].content_store 	p_hit[7] 	0.086319725771268
scalar abilene_cost_network.node[7].content_store 	hits[7] 	3324
scalar abilene_cost_network.node[7].content_store 	misses[7] 	35184
scalar abilene_cost_network.node[7].content_store 	decision_yes[7] 	17529
scalar abilene_cost_network.node[7].content_store 	decision_no[7] 	17655
scalar abilene_cost_network.node[7].content_store 	decision_ratio[7] 	0.49820941336971
scalar abilene_cost_network.node[8].core_layer 	interests[8] 	82966
scalar abilene_cost_network.node[8].core_layer 	data[8] 	77716
scalar abilene_cost_network.node[8].content_store 	p_hit[8] 	0.063266880408842
scalar abilene_cost_network.node[8].content_store 	hits[8] 	5249
scalar abilene_cost_network.node[8].content_store 	misses[8] 	77717
scalar abilene_cost_network.node[8].content_store 	decision_yes[8] 	38758
scalar abilene_cost_network.node[8].content_store 	decision_no[8] 	38958
scalar abilene_cost_network.node[8].content_store 	decision_ratio[8] 	0.49871326367801
scalar abilene_cost_network.node[9].core_layer 	interests[9] 	258103
scalar abilene_cost_network.node[9].core_layer 	repo_load[9] 	115782
scalar abilene_cost_network.node[9].core_layer 	data[9] 	87609
scalar abilene_cost_network.node[9].content_store 	p_hit[9] 	0.21153570473803
scalar abilene_cost_network.node[9].content_store 	hits[9] 	54598
scalar abilene_cost_network.node[9].content_store 	misses[9] 	203505
scalar abilene_cost_network.node[9].content_store 	decision_yes[9] 	101876
scalar abilene_cost_network.node[9].content_store 	decision_no[9] 	101515
scalar abilene_cost_network.node[9].content_store 	decision_ratio[9] 	0.50088745323048
scalar abilene_cost_network.node[10].core_layer 	interests[10] 	87398
scalar abilene_cost_network.node[10].core_layer 	data[10] 	80055
scalar abilene_cost_network.node[10].content_store 	p_hit[10] 	0.08401794091398
scalar abilene_cost_network.node[10].content_store 	hits[10] 	7343
scalar abilene_cost_network.node[10].content_store 	misses[10] 	80055
scalar abilene_cost_network.node[10].content_store 	decision_yes[10] 	40083
scalar abilene_cost_network.node[10].content_store 	decision_no[10] 	39972
scalar abilene_cost_network.node[10].content_store 	decision_ratio[10] 	0.50069327337456
scalar abilene_cost_network.client[0] 	hdistance[0] 	2.403434877903
scalar abilene_cost_network.client[0] 	downloads[0] 	180676
scalar abilene_cost_network.client[0] 	avg_time[0] 	0.011995983491
scalar abilene_cost_network.client[4] 	hdistance[4] 	2.4694574160552
scalar abilene_cost_network.client[4] 	downloads[4] 	179880
scalar abilene_cost_network.client[4] 	avg_time[4] 	0.01096870975
scalar abilene_cost_network.client[9] 	hdistance[9] 	1.9382935145965
scalar abilene_cost_network.client[9] 	downloads[9] 	179187
scalar abilene_cost_network.client[9] 	avg_time[9] 	0.009783942823
