version 2
run General-11-20150720-19:04:03-16172
attr C 116667
attr D lce
attr F spr
attr R lru
attr a 1
attr brates 1
attr configname General
attr ctlg 1e6
attr datetime 20150720-19:04:03
attr experiment General
attr inifile omnetpp.ini
attr iterationvars "$net=abilene_nodelay, $rep=5, $lambda=100, $a=1, $ctlg=1e6, $brates=1, $F=spr, $ttl=1000, $D=lce, $R=lru, $C=116667, $window=60, $variance=0.05, $mytime=1800"
attr iterationvars2 "$net=abilene_nodelay, $rep=5, $lambda=100, $a=1, $ctlg=1e6, $brates=1, $F=spr, $ttl=1000, $D=lce, $R=lru, $C=116667, $window=60, $variance=0.05, $mytime=1800, $repetition=0"
attr lambda 100
attr measurement "$net=abilene_nodelay, $rep=5, $lambda=100, $a=1, $ctlg=1e6, $brates=1, $F=spr, $ttl=1000, $D=lce, $R=lru, $C=116667, $window=60, $variance=0.05, $mytime=1800"
attr mytime 1800
attr net abilene_nodelay
attr network networks.${net=abilene_nodelay}_network
attr processid 16172
attr rep 5
attr repetition 0
attr replication #0
attr resultdir results
attr runnumber 11
attr seedset 5
attr ttl 1000
attr variance 0.05
attr window 60

scalar . 	C 	116667
scalar . 	a 	1
scalar . 	brates 	1
scalar . 	ctlg 	1e6
scalar . 	lambda 	100
scalar . 	mytime 	1800
scalar . 	rep 	5
scalar . 	ttl 	1000
scalar . 	variance 	0.05
scalar . 	window 	60
scalar abilene_nodelay_network.content_distribution 	repo-0 	9
scalar abilene_nodelay_network.content_distribution 	repo-1 	5
scalar abilene_nodelay_network.content_distribution 	repo-2 	1
scalar abilene_nodelay_network.content_distribution 	repo-3 	4
scalar abilene_nodelay_network.content_distribution 	repo-4 	0
scalar abilene_nodelay_network.content_distribution 	repo-5 	8
scalar abilene_nodelay_network.content_distribution 	repo-6 	10
scalar abilene_nodelay_network.content_distribution 	repo-7 	2
scalar abilene_nodelay_network.content_distribution 	repo-8 	3
scalar abilene_nodelay_network.content_distribution 	repo-9 	6
scalar abilene_nodelay_network.content_distribution 	repo-10 	7
scalar abilene_nodelay_network.content_distribution 	client-0 	5
scalar abilene_nodelay_network.content_distribution 	client-1 	8
scalar abilene_nodelay_network.content_distribution 	client-2 	0
scalar abilene_nodelay_network.content_distribution 	client-3 	6
scalar abilene_nodelay_network.content_distribution 	client-4 	2
scalar abilene_nodelay_network.content_distribution 	client-5 	4
scalar abilene_nodelay_network.content_distribution 	client-6 	9
scalar abilene_nodelay_network.content_distribution 	client-7 	1
scalar abilene_nodelay_network.content_distribution 	client-8 	7
scalar abilene_nodelay_network.content_distribution 	client-9 	3
scalar abilene_nodelay_network.content_distribution 	client-10 	10
scalar abilene_nodelay_network.content_distribution 	repo-0_card 	90460
scalar abilene_nodelay_network.content_distribution 	repo-0_price 	0
scalar abilene_nodelay_network.content_distribution 	repo-1_card 	90836
scalar abilene_nodelay_network.content_distribution 	repo-1_price 	0
scalar abilene_nodelay_network.content_distribution 	repo-2_card 	91160
scalar abilene_nodelay_network.content_distribution 	repo-2_price 	0
scalar abilene_nodelay_network.content_distribution 	repo-3_card 	90738
scalar abilene_nodelay_network.content_distribution 	repo-3_price 	0
scalar abilene_nodelay_network.content_distribution 	repo-4_card 	90919
scalar abilene_nodelay_network.content_distribution 	repo-4_price 	0
scalar abilene_nodelay_network.content_distribution 	repo-5_card 	91232
scalar abilene_nodelay_network.content_distribution 	repo-5_price 	0
scalar abilene_nodelay_network.content_distribution 	repo-6_card 	90910
scalar abilene_nodelay_network.content_distribution 	repo-6_price 	0
scalar abilene_nodelay_network.content_distribution 	repo-7_card 	90622
scalar abilene_nodelay_network.content_distribution 	repo-7_price 	0
scalar abilene_nodelay_network.content_distribution 	repo-8_card 	91128
scalar abilene_nodelay_network.content_distribution 	repo-8_price 	0
scalar abilene_nodelay_network.content_distribution 	repo-9_card 	90767
scalar abilene_nodelay_network.content_distribution 	repo-9_price 	0
scalar abilene_nodelay_network.content_distribution 	repo-10_card 	91228
scalar abilene_nodelay_network.content_distribution 	repo-10_price 	0
scalar abilene_nodelay_network.statistics 	stabilization_time 	4868.1
scalar abilene_nodelay_network.statistics 	p_hit 	0.51837769860448
scalar abilene_nodelay_network.statistics 	interests 	259806
scalar abilene_nodelay_network.statistics 	data 	79865.727272727
scalar abilene_nodelay_network.statistics 	hdistance 	0.6953729871203
scalar abilene_nodelay_network.statistics 	avg_time 	0
scalar abilene_nodelay_network.statistics 	downloads 	1979343
scalar abilene_nodelay_network.statistics 	total_cost 	0
scalar abilene_nodelay_network.statistics 	total_replicas 	1000000
scalar abilene_nodelay_network.statistics 	"representations_downloaded 1:" 	0
scalar abilene_nodelay_network.statistics 	"slots_per_representation 100:" 	0
scalar abilene_nodelay_network.statistics 	inner_hit 	0.74845744269689
scalar abilene_nodelay_network.statistics 	execution_time 	205
scalar abilene_nodelay_network.node[0].core_layer 	interests[0] 	204986
scalar abilene_nodelay_network.node[0].core_layer 	repo_load[0] 	38748
scalar abilene_nodelay_network.node[0].core_layer 	data[0] 	38868
scalar abilene_nodelay_network.node[0].core_layer 	slots_sent[face$o[1]->client[0]] 	17912300
scalar abilene_nodelay_network.node[0].core_layer 	slots_sent[face$o[2]->node[1]] 	1940800
scalar abilene_nodelay_network.node[0].core_layer 	slots_sent[face$o[3]->node[10]] 	645500
scalar abilene_nodelay_network.node[0].content_store 	p_hit[0] 	0.62135950747856
scalar abilene_nodelay_network.node[0].content_store 	hits[0] 	127370
scalar abilene_nodelay_network.node[0].content_store 	misses[0] 	77616
scalar abilene_nodelay_network.node[0].content_store 	decision_yes[0] 	38868
scalar abilene_nodelay_network.node[0].content_store 	decision_no[0] 	38748
scalar abilene_nodelay_network.node[0].content_store 	decision_ratio[0] 	0.50077303648732
scalar abilene_nodelay_network.node[1].core_layer 	interests[1] 	287840
scalar abilene_nodelay_network.node[1].core_layer 	repo_load[1] 	46634
scalar abilene_nodelay_network.node[1].core_layer 	data[1] 	101635
scalar abilene_nodelay_network.node[1].core_layer 	slots_sent[face$o[1]->client[1]] 	17988200
scalar abilene_nodelay_network.node[1].core_layer 	slots_sent[face$o[2]->node[0]] 	3108000
scalar abilene_nodelay_network.node[1].core_layer 	slots_sent[face$o[3]->node[10]] 	2267200
scalar abilene_nodelay_network.node[1].core_layer 	slots_sent[face$o[4]->node[2]] 	5420600
scalar abilene_nodelay_network.node[1].content_store 	p_hit[1] 	0.48489091161757
scalar abilene_nodelay_network.node[1].content_store 	hits[1] 	139571
scalar abilene_nodelay_network.node[1].content_store 	misses[1] 	148269
scalar abilene_nodelay_network.node[1].content_store 	decision_yes[1] 	101635
scalar abilene_nodelay_network.node[1].content_store 	decision_no[1] 	46634
scalar abilene_nodelay_network.node[1].content_store 	decision_ratio[1] 	0.68547707207845
scalar abilene_nodelay_network.node[2].core_layer 	interests[2] 	347769
scalar abilene_nodelay_network.node[2].core_layer 	repo_load[2] 	45672
scalar abilene_nodelay_network.node[2].core_layer 	data[2] 	153198
scalar abilene_nodelay_network.node[2].core_layer 	slots_sent[face$o[1]->client[2]] 	17962300
scalar abilene_nodelay_network.node[2].core_layer 	slots_sent[face$o[2]->node[1]] 	6274400
scalar abilene_nodelay_network.node[2].core_layer 	slots_sent[face$o[3]->node[3]] 	7359400
scalar abilene_nodelay_network.node[2].core_layer 	slots_sent[face$o[4]->node[8]] 	3180800
scalar abilene_nodelay_network.node[2].content_store 	p_hit[2] 	0.42815489592229
scalar abilene_nodelay_network.node[2].content_store 	hits[2] 	148899
scalar abilene_nodelay_network.node[2].content_store 	misses[2] 	198870
scalar abilene_nodelay_network.node[2].content_store 	decision_yes[2] 	153198
scalar abilene_nodelay_network.node[2].content_store 	decision_no[2] 	45672
scalar abilene_nodelay_network.node[2].content_store 	decision_ratio[2] 	0.77034243475637
scalar abilene_nodelay_network.node[3].core_layer 	interests[3] 	332323
scalar abilene_nodelay_network.node[3].core_layer 	repo_load[3] 	44337
scalar abilene_nodelay_network.node[3].core_layer 	data[3] 	140226
scalar abilene_nodelay_network.node[3].core_layer 	slots_sent[face$o[1]->client[3]] 	17906900
scalar abilene_nodelay_network.node[3].core_layer 	slots_sent[face$o[2]->node[2]] 	7097200
scalar abilene_nodelay_network.node[3].core_layer 	slots_sent[face$o[3]->node[4]] 	4747900
scalar abilene_nodelay_network.node[3].core_layer 	slots_sent[face$o[4]->node[7]] 	3480300
scalar abilene_nodelay_network.node[3].content_store 	p_hit[3] 	0.44462766645703
scalar abilene_nodelay_network.node[3].content_store 	hits[3] 	147760
scalar abilene_nodelay_network.node[3].content_store 	misses[3] 	184563
scalar abilene_nodelay_network.node[3].content_store 	decision_yes[3] 	140226
scalar abilene_nodelay_network.node[3].content_store 	decision_no[3] 	44337
scalar abilene_nodelay_network.node[3].content_store 	decision_ratio[3] 	0.75977308561304
scalar abilene_nodelay_network.node[4].core_layer 	interests[4] 	243858
scalar abilene_nodelay_network.node[4].core_layer 	repo_load[4] 	40826
scalar abilene_nodelay_network.node[4].core_layer 	data[4] 	65653
scalar abilene_nodelay_network.node[4].core_layer 	slots_sent[face$o[1]->client[4]] 	18039700
scalar abilene_nodelay_network.node[4].core_layer 	slots_sent[face$o[2]->node[3]] 	3699200
scalar abilene_nodelay_network.node[4].core_layer 	slots_sent[face$o[3]->node[5]] 	2646900
scalar abilene_nodelay_network.node[4].content_store 	p_hit[4] 	0.56335654356224
scalar abilene_nodelay_network.node[4].content_store 	hits[4] 	137379
scalar abilene_nodelay_network.node[4].content_store 	misses[4] 	106479
scalar abilene_nodelay_network.node[4].content_store 	decision_yes[4] 	65653
scalar abilene_nodelay_network.node[4].content_store 	decision_no[4] 	40826
scalar abilene_nodelay_network.node[4].content_store 	decision_ratio[4] 	0.61658167338161
scalar abilene_nodelay_network.node[5].core_layer 	interests[5] 	212452
scalar abilene_nodelay_network.node[5].core_layer 	repo_load[5] 	44015
scalar abilene_nodelay_network.node[5].core_layer 	data[5] 	45074
scalar abilene_nodelay_network.node[5].core_layer 	slots_sent[face$o[1]->client[5]] 	17986200
scalar abilene_nodelay_network.node[5].core_layer 	slots_sent[face$o[2]->node[4]] 	1817400
scalar abilene_nodelay_network.node[5].core_layer 	slots_sent[face$o[3]->node[6]] 	1441600
scalar abilene_nodelay_network.node[5].content_store 	p_hit[5] 	0.58066292621392
scalar abilene_nodelay_network.node[5].content_store 	hits[5] 	123363
scalar abilene_nodelay_network.node[5].content_store 	misses[5] 	89089
scalar abilene_nodelay_network.node[5].content_store 	decision_yes[5] 	45074
scalar abilene_nodelay_network.node[5].content_store 	decision_no[5] 	44015
scalar abilene_nodelay_network.node[5].content_store 	decision_ratio[5] 	0.50594349470754
scalar abilene_nodelay_network.node[6].core_layer 	interests[6] 	227797
scalar abilene_nodelay_network.node[6].core_layer 	repo_load[6] 	43097
scalar abilene_nodelay_network.node[6].core_layer 	data[6] 	54272
scalar abilene_nodelay_network.node[6].core_layer 	slots_sent[face$o[1]->client[6]] 	18066400
scalar abilene_nodelay_network.node[6].core_layer 	slots_sent[face$o[2]->node[5]] 	1860500
scalar abilene_nodelay_network.node[6].core_layer 	slots_sent[face$o[3]->node[7]] 	2852800
scalar abilene_nodelay_network.node[6].content_store 	p_hit[6] 	0.57256241302563
scalar abilene_nodelay_network.node[6].content_store 	hits[6] 	130428
scalar abilene_nodelay_network.node[6].content_store 	misses[6] 	97369
scalar abilene_nodelay_network.node[6].content_store 	decision_yes[6] 	54272
scalar abilene_nodelay_network.node[6].content_store 	decision_no[6] 	43097
scalar abilene_nodelay_network.node[6].content_store 	decision_ratio[6] 	0.55738479392825
scalar abilene_nodelay_network.node[7].core_layer 	interests[7] 	276204
scalar abilene_nodelay_network.node[7].core_layer 	repo_load[7] 	44812
scalar abilene_nodelay_network.node[7].core_layer 	data[7] 	89806
scalar abilene_nodelay_network.node[7].core_layer 	slots_sent[face$o[1]->client[7]] 	18008700
scalar abilene_nodelay_network.node[7].core_layer 	slots_sent[face$o[2]->node[3]] 	2964000
scalar abilene_nodelay_network.node[7].core_layer 	slots_sent[face$o[3]->node[6]] 	3985600
scalar abilene_nodelay_network.node[7].core_layer 	slots_sent[face$o[4]->node[8]] 	2662100
scalar abilene_nodelay_network.node[7].content_store 	p_hit[7] 	0.51261386511419
scalar abilene_nodelay_network.node[7].content_store 	hits[7] 	141586
scalar abilene_nodelay_network.node[7].content_store 	misses[7] 	134618
scalar abilene_nodelay_network.node[7].content_store 	decision_yes[7] 	89806
scalar abilene_nodelay_network.node[7].content_store 	decision_no[7] 	44812
scalar abilene_nodelay_network.node[7].content_store 	decision_ratio[7] 	0.66711732457769
scalar abilene_nodelay_network.node[8].core_layer 	interests[8] 	271142
scalar abilene_nodelay_network.node[8].core_layer 	repo_load[8] 	48139
scalar abilene_nodelay_network.node[8].core_layer 	data[8] 	85570
scalar abilene_nodelay_network.node[8].core_layer 	slots_sent[face$o[1]->client[8]] 	18053300
scalar abilene_nodelay_network.node[8].core_layer 	slots_sent[face$o[2]->node[2]] 	2802000
scalar abilene_nodelay_network.node[8].core_layer 	slots_sent[face$o[3]->node[7]] 	2647500
scalar abilene_nodelay_network.node[8].core_layer 	slots_sent[face$o[4]->node[9]] 	3611400
scalar abilene_nodelay_network.node[8].content_store 	p_hit[8] 	0.50686725037065
scalar abilene_nodelay_network.node[8].content_store 	hits[8] 	137433
scalar abilene_nodelay_network.node[8].content_store 	misses[8] 	133709
scalar abilene_nodelay_network.node[8].content_store 	decision_yes[8] 	85570
scalar abilene_nodelay_network.node[8].content_store 	decision_no[8] 	48139
scalar abilene_nodelay_network.node[8].content_store 	decision_ratio[8] 	0.63997187923027
scalar abilene_nodelay_network.node[9].core_layer 	interests[9] 	227760
scalar abilene_nodelay_network.node[9].core_layer 	repo_load[9] 	43873
scalar abilene_nodelay_network.node[9].core_layer 	data[9] 	54460
scalar abilene_nodelay_network.node[9].core_layer 	slots_sent[face$o[1]->client[9]] 	17998500
scalar abilene_nodelay_network.node[9].core_layer 	slots_sent[face$o[2]->node[10]] 	2063400
scalar abilene_nodelay_network.node[9].core_layer 	slots_sent[face$o[3]->node[8]] 	2714100
scalar abilene_nodelay_network.node[9].content_store 	p_hit[9] 	0.56826044959607
scalar abilene_nodelay_network.node[9].content_store 	hits[9] 	129427
scalar abilene_nodelay_network.node[9].content_store 	misses[9] 	98333
scalar abilene_nodelay_network.node[9].content_store 	decision_yes[9] 	54460
scalar abilene_nodelay_network.node[9].content_store 	decision_no[9] 	43873
scalar abilene_nodelay_network.node[9].content_store 	decision_ratio[9] 	0.55383238587249
scalar abilene_nodelay_network.node[10].core_layer 	interests[10] 	225735
scalar abilene_nodelay_network.node[10].core_layer 	repo_load[10] 	57736
scalar abilene_nodelay_network.node[10].core_layer 	data[10] 	49761
scalar abilene_nodelay_network.node[10].core_layer 	slots_sent[face$o[1]->client[10]] 	18011800
scalar abilene_nodelay_network.node[10].core_layer 	slots_sent[face$o[2]->node[0]] 	778800
scalar abilene_nodelay_network.node[10].core_layer 	slots_sent[face$o[3]->node[1]] 	1948300
scalar abilene_nodelay_network.node[10].core_layer 	slots_sent[face$o[4]->node[9]] 	1834600
scalar abilene_nodelay_network.node[10].content_store 	p_hit[10] 	0.52379117106342
scalar abilene_nodelay_network.node[10].content_store 	hits[10] 	118238
scalar abilene_nodelay_network.node[10].content_store 	misses[10] 	107497
scalar abilene_nodelay_network.node[10].content_store 	decision_yes[10] 	49761
scalar abilene_nodelay_network.node[10].content_store 	decision_no[10] 	57736
scalar abilene_nodelay_network.node[10].content_store 	decision_ratio[10] 	0.46290594156116
scalar abilene_nodelay_network.client[0] 	hdistance[0].real 	0.71874633631639
scalar abilene_nodelay_network.client[0] 	downloads[0].real 	179123
scalar abilene_nodelay_network.client[0] 	avg_time[0].real 	0
scalar abilene_nodelay_network.client[1] 	hdistance[1].real 	0.71228360814311
scalar abilene_nodelay_network.client[1] 	downloads[1].real 	179882
scalar abilene_nodelay_network.client[1] 	avg_time[1].real 	0
scalar abilene_nodelay_network.client[2] 	hdistance[2].real 	0.64392644594512
scalar abilene_nodelay_network.client[2] 	downloads[2].real 	179623
scalar abilene_nodelay_network.client[2] 	avg_time[2].real 	0
scalar abilene_nodelay_network.client[3] 	hdistance[3].real 	0.64606380780593
scalar abilene_nodelay_network.client[3] 	downloads[3].real 	179069
scalar abilene_nodelay_network.client[3] 	avg_time[3].real 	0
scalar abilene_nodelay_network.client[4] 	hdistance[4].real 	0.70391414491372
scalar abilene_nodelay_network.client[4] 	downloads[4].real 	180397
scalar abilene_nodelay_network.client[4] 	avg_time[4].real 	0
scalar abilene_nodelay_network.client[5] 	hdistance[5].real 	0.76423591420089
scalar abilene_nodelay_network.client[5] 	downloads[5].real 	179862
scalar abilene_nodelay_network.client[5] 	avg_time[5].real 	0
scalar abilene_nodelay_network.client[6] 	hdistance[6].real 	0.72490922375239
scalar abilene_nodelay_network.client[6] 	downloads[6].real 	180664
scalar abilene_nodelay_network.client[6] 	avg_time[6].real 	0
scalar abilene_nodelay_network.client[7] 	hdistance[7].real 	0.63657565510002
scalar abilene_nodelay_network.client[7] 	downloads[7].real 	180087
scalar abilene_nodelay_network.client[7] 	avg_time[7].real 	0
scalar abilene_nodelay_network.client[8] 	hdistance[8].real 	0.63979438662183
scalar abilene_nodelay_network.client[8] 	downloads[8].real 	180533
scalar abilene_nodelay_network.client[8] 	avg_time[8].real 	0
scalar abilene_nodelay_network.client[9] 	hdistance[9].real 	0.68963524738173
scalar abilene_nodelay_network.client[9] 	downloads[9].real 	179985
scalar abilene_nodelay_network.client[9] 	avg_time[9].real 	0
scalar abilene_nodelay_network.client[10] 	hdistance[10].real 	0.76901808814222
scalar abilene_nodelay_network.client[10] 	downloads[10].real 	180118
scalar abilene_nodelay_network.client[10] 	avg_time[10].real 	0
