version 2
run General-3-20150720-19:00:39-16155
attr C 116667
attr D lce
attr F spr
attr R lru
attr a 1
attr brates 1
attr configname General
attr ctlg 1e6
attr datetime 20150720-19:00:39
attr experiment General
attr inifile omnetpp.ini
attr iterationvars "$net=abilene_nodelay, $rep=1, $lambda=100, $a=1, $ctlg=1e6, $brates=1, $F=spr, $ttl=1000, $D=lce, $R=lru, $C=116667, $window=60, $variance=0.05, $mytime=1800"
attr iterationvars2 "$net=abilene_nodelay, $rep=1, $lambda=100, $a=1, $ctlg=1e6, $brates=1, $F=spr, $ttl=1000, $D=lce, $R=lru, $C=116667, $window=60, $variance=0.05, $mytime=1800, $repetition=0"
attr lambda 100
attr measurement "$net=abilene_nodelay, $rep=1, $lambda=100, $a=1, $ctlg=1e6, $brates=1, $F=spr, $ttl=1000, $D=lce, $R=lru, $C=116667, $window=60, $variance=0.05, $mytime=1800"
attr mytime 1800
attr net abilene_nodelay
attr network networks.${net=abilene_nodelay}_network
attr processid 16155
attr rep 1
attr repetition 0
attr replication #0
attr resultdir results
attr runnumber 3
attr seedset 1
attr ttl 1000
attr variance 0.05
attr window 60

scalar . 	C 	116667
scalar . 	a 	1
scalar . 	brates 	1
scalar . 	ctlg 	1e6
scalar . 	lambda 	100
scalar . 	mytime 	1800
scalar . 	rep 	1
scalar . 	ttl 	1000
scalar . 	variance 	0.05
scalar . 	window 	60
scalar abilene_nodelay_network.content_distribution 	repo-0 	10
scalar abilene_nodelay_network.content_distribution 	repo-1 	7
scalar abilene_nodelay_network.content_distribution 	repo-2 	5
scalar abilene_nodelay_network.content_distribution 	repo-3 	1
scalar abilene_nodelay_network.content_distribution 	repo-4 	8
scalar abilene_nodelay_network.content_distribution 	repo-5 	2
scalar abilene_nodelay_network.content_distribution 	repo-6 	9
scalar abilene_nodelay_network.content_distribution 	repo-7 	4
scalar abilene_nodelay_network.content_distribution 	repo-8 	6
scalar abilene_nodelay_network.content_distribution 	repo-9 	3
scalar abilene_nodelay_network.content_distribution 	repo-10 	0
scalar abilene_nodelay_network.content_distribution 	client-0 	7
scalar abilene_nodelay_network.content_distribution 	client-1 	5
scalar abilene_nodelay_network.content_distribution 	client-2 	9
scalar abilene_nodelay_network.content_distribution 	client-3 	6
scalar abilene_nodelay_network.content_distribution 	client-4 	8
scalar abilene_nodelay_network.content_distribution 	client-5 	2
scalar abilene_nodelay_network.content_distribution 	client-6 	1
scalar abilene_nodelay_network.content_distribution 	client-7 	10
scalar abilene_nodelay_network.content_distribution 	client-8 	0
scalar abilene_nodelay_network.content_distribution 	client-9 	3
scalar abilene_nodelay_network.content_distribution 	client-10 	4
scalar abilene_nodelay_network.content_distribution 	repo-0_card 	90939
scalar abilene_nodelay_network.content_distribution 	repo-0_price 	0
scalar abilene_nodelay_network.content_distribution 	repo-1_card 	90490
scalar abilene_nodelay_network.content_distribution 	repo-1_price 	0
scalar abilene_nodelay_network.content_distribution 	repo-2_card 	90363
scalar abilene_nodelay_network.content_distribution 	repo-2_price 	0
scalar abilene_nodelay_network.content_distribution 	repo-3_card 	90686
scalar abilene_nodelay_network.content_distribution 	repo-3_price 	0
scalar abilene_nodelay_network.content_distribution 	repo-4_card 	91009
scalar abilene_nodelay_network.content_distribution 	repo-4_price 	0
scalar abilene_nodelay_network.content_distribution 	repo-5_card 	90927
scalar abilene_nodelay_network.content_distribution 	repo-5_price 	0
scalar abilene_nodelay_network.content_distribution 	repo-6_card 	91541
scalar abilene_nodelay_network.content_distribution 	repo-6_price 	0
scalar abilene_nodelay_network.content_distribution 	repo-7_card 	91332
scalar abilene_nodelay_network.content_distribution 	repo-7_price 	0
scalar abilene_nodelay_network.content_distribution 	repo-8_card 	90743
scalar abilene_nodelay_network.content_distribution 	repo-8_price 	0
scalar abilene_nodelay_network.content_distribution 	repo-9_card 	91264
scalar abilene_nodelay_network.content_distribution 	repo-9_price 	0
scalar abilene_nodelay_network.content_distribution 	repo-10_card 	90706
scalar abilene_nodelay_network.content_distribution 	repo-10_price 	0
scalar abilene_nodelay_network.statistics 	stabilization_time 	4896.8
scalar abilene_nodelay_network.statistics 	p_hit 	0.51925433522773
scalar abilene_nodelay_network.statistics 	interests 	259648.72727273
scalar abilene_nodelay_network.statistics 	data 	79655.545454545
scalar abilene_nodelay_network.statistics 	hdistance 	0.69354220842652
scalar abilene_nodelay_network.statistics 	avg_time 	0
scalar abilene_nodelay_network.statistics 	downloads 	1979925
scalar abilene_nodelay_network.statistics 	total_cost 	0
scalar abilene_nodelay_network.statistics 	total_replicas 	1000000
scalar abilene_nodelay_network.statistics 	"representations_downloaded 1:" 	0
scalar abilene_nodelay_network.statistics 	"slots_per_representation 100:" 	0
scalar abilene_nodelay_network.statistics 	inner_hit 	0.74904908014192
scalar abilene_nodelay_network.statistics 	execution_time 	203
scalar abilene_nodelay_network.node[0].core_layer 	interests[0] 	205572
scalar abilene_nodelay_network.node[0].core_layer 	repo_load[0] 	40070
scalar abilene_nodelay_network.node[0].core_layer 	data[0] 	39239
scalar abilene_nodelay_network.node[0].core_layer 	slots_sent[face$o[1]->client[0]] 	17973200
scalar abilene_nodelay_network.node[0].core_layer 	slots_sent[face$o[2]->node[1]] 	1935200
scalar abilene_nodelay_network.node[0].core_layer 	slots_sent[face$o[3]->node[10]] 	648800
scalar abilene_nodelay_network.node[0].content_store 	p_hit[0] 	0.61420329616874
scalar abilene_nodelay_network.node[0].content_store 	hits[0] 	126263
scalar abilene_nodelay_network.node[0].content_store 	misses[0] 	79309
scalar abilene_nodelay_network.node[0].content_store 	decision_yes[0] 	39239
scalar abilene_nodelay_network.node[0].content_store 	decision_no[0] 	40070
scalar abilene_nodelay_network.node[0].content_store 	decision_ratio[0] 	0.49476099812127
scalar abilene_nodelay_network.node[1].core_layer 	interests[1] 	288311
scalar abilene_nodelay_network.node[1].core_layer 	repo_load[1] 	56178
scalar abilene_nodelay_network.node[1].core_layer 	data[1] 	100916
scalar abilene_nodelay_network.node[1].core_layer 	slots_sent[face$o[1]->client[1]] 	18021800
scalar abilene_nodelay_network.node[1].core_layer 	slots_sent[face$o[2]->node[0]] 	3146000
scalar abilene_nodelay_network.node[1].core_layer 	slots_sent[face$o[3]->node[10]] 	2281400
scalar abilene_nodelay_network.node[1].core_layer 	slots_sent[face$o[4]->node[2]] 	5381900
scalar abilene_nodelay_network.node[1].content_store 	p_hit[1] 	0.45512311358221
scalar abilene_nodelay_network.node[1].content_store 	hits[1] 	131217
scalar abilene_nodelay_network.node[1].content_store 	misses[1] 	157094
scalar abilene_nodelay_network.node[1].content_store 	decision_yes[1] 	100916
scalar abilene_nodelay_network.node[1].content_store 	decision_no[1] 	56178
scalar abilene_nodelay_network.node[1].content_store 	decision_ratio[1] 	0.64239245292627
scalar abilene_nodelay_network.node[2].core_layer 	interests[2] 	348439
scalar abilene_nodelay_network.node[2].core_layer 	repo_load[2] 	48882
scalar abilene_nodelay_network.node[2].core_layer 	data[2] 	152780
scalar abilene_nodelay_network.node[2].core_layer 	slots_sent[face$o[1]->client[2]] 	18053200
scalar abilene_nodelay_network.node[2].core_layer 	slots_sent[face$o[2]->node[1]] 	6250600
scalar abilene_nodelay_network.node[2].core_layer 	slots_sent[face$o[3]->node[3]] 	7367600
scalar abilene_nodelay_network.node[2].core_layer 	slots_sent[face$o[4]->node[8]] 	3172500
scalar abilene_nodelay_network.node[2].content_store 	p_hit[2] 	0.42124159465502
scalar abilene_nodelay_network.node[2].content_store 	hits[2] 	146777
scalar abilene_nodelay_network.node[2].content_store 	misses[2] 	201662
scalar abilene_nodelay_network.node[2].content_store 	decision_yes[2] 	152780
scalar abilene_nodelay_network.node[2].content_store 	decision_no[2] 	48882
scalar abilene_nodelay_network.node[2].content_store 	decision_ratio[2] 	0.75760430819887
scalar abilene_nodelay_network.node[3].core_layer 	interests[3] 	332615
scalar abilene_nodelay_network.node[3].core_layer 	repo_load[3] 	48913
scalar abilene_nodelay_network.node[3].core_layer 	data[3] 	140254
scalar abilene_nodelay_network.node[3].core_layer 	slots_sent[face$o[1]->client[3]] 	17985300
scalar abilene_nodelay_network.node[3].core_layer 	slots_sent[face$o[2]->node[2]] 	7081500
scalar abilene_nodelay_network.node[3].core_layer 	slots_sent[face$o[3]->node[4]] 	4726900
scalar abilene_nodelay_network.node[3].core_layer 	slots_sent[face$o[4]->node[7]] 	3467800
scalar abilene_nodelay_network.node[3].content_store 	p_hit[3] 	0.43127339416442
scalar abilene_nodelay_network.node[3].content_store 	hits[3] 	143448
scalar abilene_nodelay_network.node[3].content_store 	misses[3] 	189167
scalar abilene_nodelay_network.node[3].content_store 	decision_yes[3] 	140254
scalar abilene_nodelay_network.node[3].content_store 	decision_no[3] 	48913
scalar abilene_nodelay_network.node[3].content_store 	decision_ratio[3] 	0.74142953052065
scalar abilene_nodelay_network.node[4].core_layer 	interests[4] 	243070
scalar abilene_nodelay_network.node[4].core_layer 	repo_load[4] 	43091
scalar abilene_nodelay_network.node[4].core_layer 	data[4] 	65340
scalar abilene_nodelay_network.node[4].core_layer 	slots_sent[face$o[1]->client[4]] 	17949900
scalar abilene_nodelay_network.node[4].core_layer 	slots_sent[face$o[2]->node[3]] 	3715200
scalar abilene_nodelay_network.node[4].core_layer 	slots_sent[face$o[3]->node[5]] 	2641900
scalar abilene_nodelay_network.node[4].content_store 	p_hit[4] 	0.55391039618217
scalar abilene_nodelay_network.node[4].content_store 	hits[4] 	134639
scalar abilene_nodelay_network.node[4].content_store 	misses[4] 	108431
scalar abilene_nodelay_network.node[4].content_store 	decision_yes[4] 	65340
scalar abilene_nodelay_network.node[4].content_store 	decision_no[4] 	43091
scalar abilene_nodelay_network.node[4].content_store 	decision_ratio[4] 	0.60259519879001
scalar abilene_nodelay_network.node[5].core_layer 	interests[5] 	212135
scalar abilene_nodelay_network.node[5].core_layer 	repo_load[5] 	35849
scalar abilene_nodelay_network.node[5].core_layer 	data[5] 	44683
scalar abilene_nodelay_network.node[5].core_layer 	slots_sent[face$o[1]->client[5]] 	17974700
scalar abilene_nodelay_network.node[5].core_layer 	slots_sent[face$o[2]->node[4]] 	1807100
scalar abilene_nodelay_network.node[5].core_layer 	slots_sent[face$o[3]->node[6]] 	1431700
scalar abilene_nodelay_network.node[5].content_store 	p_hit[5] 	0.62037381855894
scalar abilene_nodelay_network.node[5].content_store 	hits[5] 	131603
scalar abilene_nodelay_network.node[5].content_store 	misses[5] 	80532
scalar abilene_nodelay_network.node[5].content_store 	decision_yes[5] 	44683
scalar abilene_nodelay_network.node[5].content_store 	decision_no[5] 	35849
scalar abilene_nodelay_network.node[5].content_store 	decision_ratio[5] 	0.55484776238017
scalar abilene_nodelay_network.node[6].core_layer 	interests[6] 	226444
scalar abilene_nodelay_network.node[6].core_layer 	repo_load[6] 	47772
scalar abilene_nodelay_network.node[6].core_layer 	data[6] 	53942
scalar abilene_nodelay_network.node[6].core_layer 	slots_sent[face$o[1]->client[6]] 	17960100
scalar abilene_nodelay_network.node[6].core_layer 	slots_sent[face$o[2]->node[5]] 	1826400
scalar abilene_nodelay_network.node[6].core_layer 	slots_sent[face$o[3]->node[7]] 	2857900
scalar abilene_nodelay_network.node[6].content_store 	p_hit[6] 	0.55082051191465
scalar abilene_nodelay_network.node[6].content_store 	hits[6] 	124730
scalar abilene_nodelay_network.node[6].content_store 	misses[6] 	101714
scalar abilene_nodelay_network.node[6].content_store 	decision_yes[6] 	53942
scalar abilene_nodelay_network.node[6].content_store 	decision_no[6] 	47772
scalar abilene_nodelay_network.node[6].content_store 	decision_ratio[6] 	0.5303301413768
scalar abilene_nodelay_network.node[7].core_layer 	interests[7] 	275600
scalar abilene_nodelay_network.node[7].core_layer 	repo_load[7] 	44569
scalar abilene_nodelay_network.node[7].core_layer 	data[7] 	89753
scalar abilene_nodelay_network.node[7].core_layer 	slots_sent[face$o[1]->client[7]] 	18013300
scalar abilene_nodelay_network.node[7].core_layer 	slots_sent[face$o[2]->node[3]] 	2942600
scalar abilene_nodelay_network.node[7].core_layer 	slots_sent[face$o[3]->node[6]] 	3962500
scalar abilene_nodelay_network.node[7].core_layer 	slots_sent[face$o[4]->node[8]] 	2641600
scalar abilene_nodelay_network.node[7].content_store 	p_hit[7] 	0.51261973875181
scalar abilene_nodelay_network.node[7].content_store 	hits[7] 	141278
scalar abilene_nodelay_network.node[7].content_store 	misses[7] 	134322
scalar abilene_nodelay_network.node[7].content_store 	decision_yes[7] 	89753
scalar abilene_nodelay_network.node[7].content_store 	decision_no[7] 	44569
scalar abilene_nodelay_network.node[7].content_store 	decision_ratio[7] 	0.66819285001712
scalar abilene_nodelay_network.node[8].core_layer 	interests[8] 	270900
scalar abilene_nodelay_network.node[8].core_layer 	repo_load[8] 	47414
scalar abilene_nodelay_network.node[8].core_layer 	data[8] 	85093
scalar abilene_nodelay_network.node[8].core_layer 	slots_sent[face$o[1]->client[8]] 	18036900
scalar abilene_nodelay_network.node[8].core_layer 	slots_sent[face$o[2]->node[2]] 	2814600
scalar abilene_nodelay_network.node[8].core_layer 	slots_sent[face$o[3]->node[7]] 	2649600
scalar abilene_nodelay_network.node[8].core_layer 	slots_sent[face$o[4]->node[9]] 	3588900
scalar abilene_nodelay_network.node[8].content_store 	p_hit[8] 	0.51086378737542
scalar abilene_nodelay_network.node[8].content_store 	hits[8] 	138393
scalar abilene_nodelay_network.node[8].content_store 	misses[8] 	132507
scalar abilene_nodelay_network.node[8].content_store 	decision_yes[8] 	85093
scalar abilene_nodelay_network.node[8].content_store 	decision_no[8] 	47414
scalar abilene_nodelay_network.node[8].content_store 	decision_ratio[8] 	0.64217739440181
scalar abilene_nodelay_network.node[9].core_layer 	interests[9] 	227649
scalar abilene_nodelay_network.node[9].core_layer 	repo_load[9] 	41806
scalar abilene_nodelay_network.node[9].core_layer 	data[9] 	54411
scalar abilene_nodelay_network.node[9].core_layer 	slots_sent[face$o[1]->client[9]] 	18019900
scalar abilene_nodelay_network.node[9].core_layer 	slots_sent[face$o[2]->node[10]] 	2049800
scalar abilene_nodelay_network.node[9].core_layer 	slots_sent[face$o[3]->node[8]] 	2695200
scalar abilene_nodelay_network.node[9].content_store 	p_hit[9] 	0.57734494770458
scalar abilene_nodelay_network.node[9].content_store 	hits[9] 	131432
scalar abilene_nodelay_network.node[9].content_store 	misses[9] 	96217
scalar abilene_nodelay_network.node[9].content_store 	decision_yes[9] 	54411
scalar abilene_nodelay_network.node[9].content_store 	decision_no[9] 	41806
scalar abilene_nodelay_network.node[9].content_store 	decision_ratio[9] 	0.56550297764428
scalar abilene_nodelay_network.node[10].core_layer 	interests[10] 	225401
scalar abilene_nodelay_network.node[10].core_layer 	repo_load[10] 	42320
scalar abilene_nodelay_network.node[10].core_layer 	data[10] 	49800
scalar abilene_nodelay_network.node[10].core_layer 	slots_sent[face$o[1]->client[10]] 	18004200
scalar abilene_nodelay_network.node[10].core_layer 	slots_sent[face$o[2]->node[0]] 	777900
scalar abilene_nodelay_network.node[10].core_layer 	slots_sent[face$o[3]->node[1]] 	1905800
scalar abilene_nodelay_network.node[10].core_layer 	slots_sent[face$o[4]->node[9]] 	1852200
scalar abilene_nodelay_network.node[10].content_store 	p_hit[10] 	0.59130616101969
scalar abilene_nodelay_network.node[10].content_store 	hits[10] 	133281
scalar abilene_nodelay_network.node[10].content_store 	misses[10] 	92120
scalar abilene_nodelay_network.node[10].content_store 	decision_yes[10] 	49800
scalar abilene_nodelay_network.node[10].content_store 	decision_no[10] 	42320
scalar abilene_nodelay_network.node[10].content_store 	decision_ratio[10] 	0.54059921841077
scalar abilene_nodelay_network.client[0] 	hdistance[0].real 	0.7251685843367
scalar abilene_nodelay_network.client[0] 	downloads[0].real 	179732
scalar abilene_nodelay_network.client[0] 	avg_time[0].real 	0
scalar abilene_nodelay_network.client[1] 	hdistance[1].real 	0.75729949283645
scalar abilene_nodelay_network.client[1] 	downloads[1].real 	180218
scalar abilene_nodelay_network.client[1] 	avg_time[1].real 	0
scalar abilene_nodelay_network.client[2] 	hdistance[2].real 	0.65631577781225
scalar abilene_nodelay_network.client[2] 	downloads[2].real 	180532
scalar abilene_nodelay_network.client[2] 	avg_time[2].real 	0
scalar abilene_nodelay_network.client[3] 	hdistance[3].real 	0.68002201798135
scalar abilene_nodelay_network.client[3] 	downloads[3].real 	179853
scalar abilene_nodelay_network.client[3] 	avg_time[3].real 	0
scalar abilene_nodelay_network.client[4] 	hdistance[4].real 	0.71677279539162
scalar abilene_nodelay_network.client[4] 	downloads[4].real 	179499
scalar abilene_nodelay_network.client[4] 	avg_time[4].real 	0
scalar abilene_nodelay_network.client[5] 	hdistance[5].real 	0.71616772463518
scalar abilene_nodelay_network.client[5] 	downloads[5].real 	179747
scalar abilene_nodelay_network.client[5] 	avg_time[5].real 	0
scalar abilene_nodelay_network.client[6] 	hdistance[6].real 	0.74966731811071
scalar abilene_nodelay_network.client[6] 	downloads[6].real 	179601
scalar abilene_nodelay_network.client[6] 	avg_time[6].real 	0
scalar abilene_nodelay_network.client[7] 	hdistance[7].real 	0.63392049208085
scalar abilene_nodelay_network.client[7] 	downloads[7].real 	180133
scalar abilene_nodelay_network.client[7] 	avg_time[7].real 	0
scalar abilene_nodelay_network.client[8] 	hdistance[8].real 	0.63128364630286
scalar abilene_nodelay_network.client[8] 	downloads[8].real 	180369
scalar abilene_nodelay_network.client[8] 	avg_time[8].real 	0
scalar abilene_nodelay_network.client[9] 	hdistance[9].real 	0.67784504908462
scalar abilene_nodelay_network.client[9] 	downloads[9].real 	180199
scalar abilene_nodelay_network.client[9] 	avg_time[9].real 	0
scalar abilene_nodelay_network.client[10] 	hdistance[10].real 	0.68450139411916
scalar abilene_nodelay_network.client[10] 	downloads[10].real 	180042
scalar abilene_nodelay_network.client[10] 	avg_time[10].real 	0
