version 2
run General-0-20150717-15:49:57-10757
attr C 1
attr D lce
attr F spr
attr R lru_repr
attr a 1
attr brates 0.3_0.7_1.5_2.5_3.5
attr configname General
attr ctlg 10
attr datetime 20150717-15:49:57
attr experiment General
attr inifile omnetpp.ini
attr iterationvars "$net=abilene_nodelay, $rep=0, $lambda=100, $a=1, $ctlg=10, $brates=0.3_0.7_1.5_2.5_3.5, $F=spr, $ttl=1000, $D=lce, $R=lru_repr, $C=1, $window=60, $variance=0.05, $mytime=180"
attr iterationvars2 "$net=abilene_nodelay, $rep=0, $lambda=100, $a=1, $ctlg=10, $brates=0.3_0.7_1.5_2.5_3.5, $F=spr, $ttl=1000, $D=lce, $R=lru_repr, $C=1, $window=60, $variance=0.05, $mytime=180, $repetition=0"
attr lambda 100
attr measurement "$net=abilene_nodelay, $rep=0, $lambda=100, $a=1, $ctlg=10, $brates=0.3_0.7_1.5_2.5_3.5, $F=spr, $ttl=1000, $D=lce, $R=lru_repr, $C=1, $window=60, $variance=0.05, $mytime=180"
attr mytime 180
attr net abilene_nodelay
attr network networks.${net=abilene_nodelay}_network
attr processid 10757
attr rep 0
attr repetition 0
attr replication #0
attr resultdir results
attr runnumber 0
attr seedset 0
attr ttl 1000
attr variance 0.05
attr window 60

scalar . 	C 	1
scalar . 	a 	1
scalar . 	ctlg 	10
scalar . 	lambda 	100
scalar . 	mytime 	180
scalar . 	rep 	0
scalar . 	ttl 	1000
scalar . 	variance 	0.05
scalar . 	window 	60
scalar abilene_nodelay_network.content_distribution 	repo-0 	5
scalar abilene_nodelay_network.content_distribution 	repo-1 	8
scalar abilene_nodelay_network.content_distribution 	repo-2 	9
scalar abilene_nodelay_network.content_distribution 	repo-3 	0
scalar abilene_nodelay_network.content_distribution 	repo-4 	1
scalar abilene_nodelay_network.content_distribution 	repo-5 	7
scalar abilene_nodelay_network.content_distribution 	repo-6 	6
scalar abilene_nodelay_network.content_distribution 	repo-7 	2
scalar abilene_nodelay_network.content_distribution 	repo-8 	4
scalar abilene_nodelay_network.content_distribution 	repo-9 	10
scalar abilene_nodelay_network.content_distribution 	repo-10 	3
scalar abilene_nodelay_network.content_distribution 	client-0 	10
scalar abilene_nodelay_network.content_distribution 	client-1 	9
scalar abilene_nodelay_network.content_distribution 	client-2 	8
scalar abilene_nodelay_network.content_distribution 	client-3 	7
scalar abilene_nodelay_network.content_distribution 	client-4 	3
scalar abilene_nodelay_network.content_distribution 	client-5 	6
scalar abilene_nodelay_network.content_distribution 	client-6 	5
scalar abilene_nodelay_network.content_distribution 	client-7 	1
scalar abilene_nodelay_network.content_distribution 	client-8 	4
scalar abilene_nodelay_network.content_distribution 	client-9 	0
scalar abilene_nodelay_network.content_distribution 	client-10 	2
scalar abilene_nodelay_network.content_distribution 	repo-0_card 	1
scalar abilene_nodelay_network.content_distribution 	repo-0_price 	0
scalar abilene_nodelay_network.content_distribution 	repo-1_card 	0
scalar abilene_nodelay_network.content_distribution 	repo-1_price 	0
scalar abilene_nodelay_network.content_distribution 	repo-2_card 	1
scalar abilene_nodelay_network.content_distribution 	repo-2_price 	0
scalar abilene_nodelay_network.content_distribution 	repo-3_card 	0
scalar abilene_nodelay_network.content_distribution 	repo-3_price 	0
scalar abilene_nodelay_network.content_distribution 	repo-4_card 	1
scalar abilene_nodelay_network.content_distribution 	repo-4_price 	0
scalar abilene_nodelay_network.content_distribution 	repo-5_card 	0
scalar abilene_nodelay_network.content_distribution 	repo-5_price 	0
scalar abilene_nodelay_network.content_distribution 	repo-6_card 	1
scalar abilene_nodelay_network.content_distribution 	repo-6_price 	0
scalar abilene_nodelay_network.content_distribution 	repo-7_card 	2
scalar abilene_nodelay_network.content_distribution 	repo-7_price 	0
scalar abilene_nodelay_network.content_distribution 	repo-8_card 	1
scalar abilene_nodelay_network.content_distribution 	repo-8_price 	0
scalar abilene_nodelay_network.content_distribution 	repo-9_card 	2
scalar abilene_nodelay_network.content_distribution 	repo-9_price 	0
scalar abilene_nodelay_network.content_distribution 	repo-10_card 	1
scalar abilene_nodelay_network.content_distribution 	repo-10_price 	0
scalar abilene_nodelay_network.statistics 	stabilization_time 	2276.2
scalar abilene_nodelay_network.statistics 	p_hit 	0.19708500587095
scalar abilene_nodelay_network.statistics 	interests 	66583.636363636
scalar abilene_nodelay_network.statistics 	data 	37532.454545455
scalar abilene_nodelay_network.statistics 	hdistance 	1.4849345384586
scalar abilene_nodelay_network.statistics 	avg_time 	0
scalar abilene_nodelay_network.statistics 	downloads 	197444
scalar abilene_nodelay_network.statistics 	total_cost 	0
scalar abilene_nodelay_network.statistics 	total_replicas 	10
scalar abilene_nodelay_network.statistics 	"representations_downloaded 0.671208:0.11851:0.0773586:0.0572365:0.0756873:" 	0
scalar abilene_nodelay_network.statistics 	"slots_per_representation 100:233:500:833:1167:" 	0
scalar abilene_nodelay_network.statistics 	inner_hit 	0.1125888859626
scalar abilene_nodelay_network.statistics 	interests_sent 	197444
scalar abilene_nodelay_network.statistics 	execution_time 	966
scalar abilene_nodelay_network.node[0].core_layer 	interests[0] 	24949
scalar abilene_nodelay_network.node[0].core_layer 	data[0] 	17183
scalar abilene_nodelay_network.node[0].core_layer 	slots_sent[face$o[1]->client[0]] 	4825353
scalar abilene_nodelay_network.node[0].core_layer 	slots_sent[face$o[2]->node[1]] 	0
scalar abilene_nodelay_network.node[0].core_layer 	slots_sent[face$o[3]->node[10]] 	0
scalar abilene_nodelay_network.node[0].content_store 	p_hit[0] 	0.31127500100204
scalar abilene_nodelay_network.node[0].content_store 	hits[0] 	7766
scalar abilene_nodelay_network.node[0].content_store 	misses[0] 	17183
scalar abilene_nodelay_network.node[0].content_store 	decision_yes[0] 	17183
scalar abilene_nodelay_network.node[0].content_store 	decision_no[0] 	0
scalar abilene_nodelay_network.node[0].content_store 	decision_ratio[0] 	1
scalar abilene_nodelay_network.node[0].content_store 	"representation_breakdown[0] 0:0:0:0:1:" 	0
scalar abilene_nodelay_network.node[0].proactive_component 	hdistance[0].proactive_component 	2.7599274705349
scalar abilene_nodelay_network.node[0].proactive_component 	downloads[0].proactive_component 	93755
scalar abilene_nodelay_network.node[0].proactive_component 	avg_time[0].proactive_component 	0
scalar abilene_nodelay_network.node[0].proactive_component 	interests_sent[0].proactive_component 	93755
scalar abilene_nodelay_network.node[1].core_layer 	interests[1] 	90931
scalar abilene_nodelay_network.node[1].core_layer 	repo_load[1] 	32705
scalar abilene_nodelay_network.node[1].core_layer 	data[1] 	42664
scalar abilene_nodelay_network.node[1].core_layer 	slots_sent[face$o[1]->client[1]] 	4725903
scalar abilene_nodelay_network.node[1].core_layer 	slots_sent[face$o[2]->node[0]] 	4900146
scalar abilene_nodelay_network.node[1].core_layer 	slots_sent[face$o[3]->node[10]] 	6195648
scalar abilene_nodelay_network.node[1].core_layer 	slots_sent[face$o[4]->node[2]] 	11497334
scalar abilene_nodelay_network.node[1].content_store 	p_hit[1] 	0.17114075507803
scalar abilene_nodelay_network.node[1].content_store 	hits[1] 	15562
scalar abilene_nodelay_network.node[1].content_store 	misses[1] 	75369
scalar abilene_nodelay_network.node[1].content_store 	decision_yes[1] 	42664
scalar abilene_nodelay_network.node[1].content_store 	decision_no[1] 	32705
scalar abilene_nodelay_network.node[1].content_store 	decision_ratio[1] 	0.56606827740848
scalar abilene_nodelay_network.node[1].content_store 	"representation_breakdown[1] 2:1:0:0:0:" 	0
scalar abilene_nodelay_network.node[1].proactive_component 	hdistance[1].proactive_component 	2.6598590448108
scalar abilene_nodelay_network.node[1].proactive_component 	downloads[1].proactive_component 	179064
scalar abilene_nodelay_network.node[1].proactive_component 	avg_time[1].proactive_component 	0
scalar abilene_nodelay_network.node[1].proactive_component 	interests_sent[1].proactive_component 	179064
scalar abilene_nodelay_network.node[2].core_layer 	interests[2] 	109234
scalar abilene_nodelay_network.node[2].core_layer 	repo_load[2] 	24815
scalar abilene_nodelay_network.node[2].core_layer 	data[2] 	66867
scalar abilene_nodelay_network.node[2].core_layer 	slots_sent[face$o[1]->client[2]] 	5127304
scalar abilene_nodelay_network.node[2].core_layer 	slots_sent[face$o[2]->node[1]] 	11593727
scalar abilene_nodelay_network.node[2].core_layer 	slots_sent[face$o[3]->node[3]] 	10866739
scalar abilene_nodelay_network.node[2].core_layer 	slots_sent[face$o[4]->node[8]] 	2045616
scalar abilene_nodelay_network.node[2].content_store 	p_hit[2] 	0.16068257136057
scalar abilene_nodelay_network.node[2].content_store 	hits[2] 	17552
scalar abilene_nodelay_network.node[2].content_store 	misses[2] 	91682
scalar abilene_nodelay_network.node[2].content_store 	decision_yes[2] 	66867
scalar abilene_nodelay_network.node[2].content_store 	decision_no[2] 	24815
scalar abilene_nodelay_network.node[2].content_store 	decision_ratio[2] 	0.72933618376562
scalar abilene_nodelay_network.node[2].content_store 	"representation_breakdown[2] 2:0:0:0:0:" 	0
scalar abilene_nodelay_network.node[2].proactive_component 	hdistance[2].proactive_component 	2.258290861346
scalar abilene_nodelay_network.node[2].proactive_component 	downloads[2].proactive_component 	212493
scalar abilene_nodelay_network.node[2].proactive_component 	avg_time[2].proactive_component 	0
scalar abilene_nodelay_network.node[2].proactive_component 	interests_sent[2].proactive_component 	212493
scalar abilene_nodelay_network.node[3].core_layer 	interests[3] 	96767
scalar abilene_nodelay_network.node[3].core_layer 	repo_load[3] 	9815
scalar abilene_nodelay_network.node[3].core_layer 	data[3] 	69067
scalar abilene_nodelay_network.node[3].core_layer 	slots_sent[face$o[1]->client[3]] 	5140645
scalar abilene_nodelay_network.node[3].core_layer 	slots_sent[face$o[2]->node[2]] 	14281623
scalar abilene_nodelay_network.node[3].core_layer 	slots_sent[face$o[3]->node[4]] 	5043196
scalar abilene_nodelay_network.node[3].core_layer 	slots_sent[face$o[4]->node[7]] 	3024208
scalar abilene_nodelay_network.node[3].content_store 	p_hit[3] 	0.18482540535513
scalar abilene_nodelay_network.node[3].content_store 	hits[3] 	17885
scalar abilene_nodelay_network.node[3].content_store 	misses[3] 	78882
scalar abilene_nodelay_network.node[3].content_store 	decision_yes[3] 	69067
scalar abilene_nodelay_network.node[3].content_store 	decision_no[3] 	9815
scalar abilene_nodelay_network.node[3].content_store 	decision_ratio[3] 	0.87557364164195
scalar abilene_nodelay_network.node[3].content_store 	"representation_breakdown[3] 1:0:0:0:0:" 	0
scalar abilene_nodelay_network.node[3].proactive_component 	hdistance[3].proactive_component 	2.2860940215095
scalar abilene_nodelay_network.node[3].proactive_component 	downloads[3].proactive_component 	212930
scalar abilene_nodelay_network.node[3].proactive_component 	avg_time[3].proactive_component 	0
scalar abilene_nodelay_network.node[3].proactive_component 	interests_sent[3].proactive_component 	212930
scalar abilene_nodelay_network.node[4].core_layer 	interests[4] 	68377
scalar abilene_nodelay_network.node[4].core_layer 	repo_load[4] 	7515
scalar abilene_nodelay_network.node[4].core_layer 	data[4] 	44122
scalar abilene_nodelay_network.node[4].core_layer 	slots_sent[face$o[1]->client[4]] 	5327941
scalar abilene_nodelay_network.node[4].core_layer 	slots_sent[face$o[2]->node[3]] 	15950568
scalar abilene_nodelay_network.node[4].core_layer 	slots_sent[face$o[3]->node[5]] 	3015316
scalar abilene_nodelay_network.node[4].content_store 	p_hit[4] 	0.24481916433889
scalar abilene_nodelay_network.node[4].content_store 	hits[4] 	16740
scalar abilene_nodelay_network.node[4].content_store 	misses[4] 	51637
scalar abilene_nodelay_network.node[4].content_store 	decision_yes[4] 	44122
scalar abilene_nodelay_network.node[4].content_store 	decision_no[4] 	7515
scalar abilene_nodelay_network.node[4].content_store 	decision_ratio[4] 	0.85446482173635
scalar abilene_nodelay_network.node[4].content_store 	"representation_breakdown[4] 0:0:0:0:1:" 	0
scalar abilene_nodelay_network.node[4].proactive_component 	hdistance[4].proactive_component 	2.2155923681836
scalar abilene_nodelay_network.node[4].proactive_component 	downloads[4].proactive_component 	155140
scalar abilene_nodelay_network.node[4].proactive_component 	avg_time[4].proactive_component 	0
scalar abilene_nodelay_network.node[4].proactive_component 	interests_sent[4].proactive_component 	155140
scalar abilene_nodelay_network.node[5].core_layer 	interests[5] 	66014
scalar abilene_nodelay_network.node[5].core_layer 	repo_load[5] 	47264
scalar abilene_nodelay_network.node[5].core_layer 	data[5] 	12904
scalar abilene_nodelay_network.node[5].core_layer 	slots_sent[face$o[1]->client[5]] 	2960704
scalar abilene_nodelay_network.node[5].core_layer 	slots_sent[face$o[2]->node[4]] 	14416759
scalar abilene_nodelay_network.node[5].core_layer 	slots_sent[face$o[3]->node[6]] 	10000691
scalar abilene_nodelay_network.node[5].content_store 	p_hit[5] 	0.088556972763353
scalar abilene_nodelay_network.node[5].content_store 	hits[5] 	5846
scalar abilene_nodelay_network.node[5].content_store 	misses[5] 	60168
scalar abilene_nodelay_network.node[5].content_store 	decision_yes[5] 	12904
scalar abilene_nodelay_network.node[5].content_store 	decision_no[5] 	47264
scalar abilene_nodelay_network.node[5].content_store 	decision_ratio[5] 	0.21446616141471
scalar abilene_nodelay_network.node[5].content_store 	"representation_breakdown[5] 2:0:0:0:0:" 	0
scalar abilene_nodelay_network.node[5].proactive_component 	hdistance[5].proactive_component 	3.9334158947595
scalar abilene_nodelay_network.node[5].proactive_component 	downloads[5].proactive_component 	79133
scalar abilene_nodelay_network.node[5].proactive_component 	avg_time[5].proactive_component 	0
scalar abilene_nodelay_network.node[5].proactive_component 	interests_sent[5].proactive_component 	79133
scalar abilene_nodelay_network.node[6].core_layer 	interests[6] 	50874
scalar abilene_nodelay_network.node[6].core_layer 	repo_load[6] 	6626
scalar abilene_nodelay_network.node[6].core_layer 	data[6] 	29706
scalar abilene_nodelay_network.node[6].core_layer 	slots_sent[face$o[1]->client[6]] 	5529148
scalar abilene_nodelay_network.node[6].core_layer 	slots_sent[face$o[2]->node[5]] 	711871
scalar abilene_nodelay_network.node[6].core_layer 	slots_sent[face$o[3]->node[7]] 	10300485
scalar abilene_nodelay_network.node[6].content_store 	p_hit[6] 	0.28584345638244
scalar abilene_nodelay_network.node[6].content_store 	hits[6] 	14542
scalar abilene_nodelay_network.node[6].content_store 	misses[6] 	36332
scalar abilene_nodelay_network.node[6].content_store 	decision_yes[6] 	29706
scalar abilene_nodelay_network.node[6].content_store 	decision_no[6] 	6626
scalar abilene_nodelay_network.node[6].content_store 	decision_ratio[6] 	0.81762633491137
scalar abilene_nodelay_network.node[6].content_store 	"representation_breakdown[6] 0:0:0:1:0:" 	0
scalar abilene_nodelay_network.node[6].proactive_component 	hdistance[6].proactive_component 	2.2339696876144
scalar abilene_nodelay_network.node[6].proactive_component 	downloads[6].proactive_component 	139283
scalar abilene_nodelay_network.node[6].proactive_component 	avg_time[6].proactive_component 	0
scalar abilene_nodelay_network.node[6].proactive_component 	interests_sent[6].proactive_component 	139283
scalar abilene_nodelay_network.node[7].core_layer 	interests[7] 	57460
scalar abilene_nodelay_network.node[7].core_layer 	data[7] 	43289
scalar abilene_nodelay_network.node[7].core_layer 	slots_sent[face$o[1]->client[7]] 	5111627
scalar abilene_nodelay_network.node[7].core_layer 	slots_sent[face$o[2]->node[3]] 	371247
scalar abilene_nodelay_network.node[7].core_layer 	slots_sent[face$o[3]->node[6]] 	2787567
scalar abilene_nodelay_network.node[7].core_layer 	slots_sent[face$o[4]->node[8]] 	6825955
scalar abilene_nodelay_network.node[7].content_store 	p_hit[7] 	0.2466237382527
scalar abilene_nodelay_network.node[7].content_store 	hits[7] 	14171
scalar abilene_nodelay_network.node[7].content_store 	misses[7] 	43289
scalar abilene_nodelay_network.node[7].content_store 	decision_yes[7] 	43289
scalar abilene_nodelay_network.node[7].content_store 	decision_no[7] 	0
scalar abilene_nodelay_network.node[7].content_store 	decision_ratio[7] 	1
scalar abilene_nodelay_network.node[7].content_store 	"representation_breakdown[7] 0:0:0:1:0:" 	0
scalar abilene_nodelay_network.node[7].proactive_component 	hdistance[7].proactive_component 	2.2419127737008
scalar abilene_nodelay_network.node[7].proactive_component 	downloads[7].proactive_component 	167610
scalar abilene_nodelay_network.node[7].proactive_component 	avg_time[7].proactive_component 	0
scalar abilene_nodelay_network.node[7].proactive_component 	interests_sent[7].proactive_component 	167610
scalar abilene_nodelay_network.node[8].core_layer 	interests[8] 	56390
scalar abilene_nodelay_network.node[8].core_layer 	data[8] 	42077
scalar abilene_nodelay_network.node[8].core_layer 	slots_sent[face$o[1]->client[8]] 	5064091
scalar abilene_nodelay_network.node[8].core_layer 	slots_sent[face$o[2]->node[2]] 	1161065
scalar abilene_nodelay_network.node[8].core_layer 	slots_sent[face$o[3]->node[7]] 	2737257
scalar abilene_nodelay_network.node[8].core_layer 	slots_sent[face$o[4]->node[9]] 	3914653
scalar abilene_nodelay_network.node[8].content_store 	p_hit[8] 	0.25382159957439
scalar abilene_nodelay_network.node[8].content_store 	hits[8] 	14313
scalar abilene_nodelay_network.node[8].content_store 	misses[8] 	42077
scalar abilene_nodelay_network.node[8].content_store 	decision_yes[8] 	42077
scalar abilene_nodelay_network.node[8].content_store 	decision_no[8] 	0
scalar abilene_nodelay_network.node[8].content_store 	decision_ratio[8] 	1
scalar abilene_nodelay_network.node[8].content_store 	"representation_breakdown[8] 0:0:0:0:1:" 	0
scalar abilene_nodelay_network.node[8].proactive_component 	hdistance[8].proactive_component 	2.1507062478501
scalar abilene_nodelay_network.node[8].proactive_component 	downloads[8].proactive_component 	183151
scalar abilene_nodelay_network.node[8].proactive_component 	avg_time[8].proactive_component 	0
scalar abilene_nodelay_network.node[8].proactive_component 	interests_sent[8].proactive_component 	183151
scalar abilene_nodelay_network.node[9].core_layer 	interests[9] 	51185
scalar abilene_nodelay_network.node[9].core_layer 	repo_load[9] 	16556
scalar abilene_nodelay_network.node[9].core_layer 	data[9] 	24408
scalar abilene_nodelay_network.node[9].core_layer 	slots_sent[face$o[1]->client[9]] 	4585971
scalar abilene_nodelay_network.node[9].core_layer 	slots_sent[face$o[2]->node[10]] 	1477493
scalar abilene_nodelay_network.node[9].core_layer 	slots_sent[face$o[3]->node[8]] 	6128932
scalar abilene_nodelay_network.node[9].content_store 	p_hit[9] 	0.19968740842044
scalar abilene_nodelay_network.node[9].content_store 	hits[9] 	10221
scalar abilene_nodelay_network.node[9].content_store 	misses[9] 	40964
scalar abilene_nodelay_network.node[9].content_store 	decision_yes[9] 	24408
scalar abilene_nodelay_network.node[9].content_store 	decision_no[9] 	16556
scalar abilene_nodelay_network.node[9].content_store 	decision_ratio[9] 	0.59584024997559
scalar abilene_nodelay_network.node[9].content_store 	"representation_breakdown[9] 0:0:0:0:1:" 	0
scalar abilene_nodelay_network.node[9].proactive_component 	hdistance[9].proactive_component 	2.3375461374954
scalar abilene_nodelay_network.node[9].proactive_component 	downloads[9].proactive_component 	130317
scalar abilene_nodelay_network.node[9].proactive_component 	avg_time[9].proactive_component 	0
scalar abilene_nodelay_network.node[9].proactive_component 	interests_sent[9].proactive_component 	130317
scalar abilene_nodelay_network.node[10].core_layer 	interests[10] 	60239
scalar abilene_nodelay_network.node[10].core_layer 	repo_load[10] 	29918
scalar abilene_nodelay_network.node[10].core_layer 	data[10] 	20570
scalar abilene_nodelay_network.node[10].core_layer 	slots_sent[face$o[1]->client[10]] 	4796261
scalar abilene_nodelay_network.node[10].core_layer 	slots_sent[face$o[2]->node[0]] 	880053
scalar abilene_nodelay_network.node[10].core_layer 	slots_sent[face$o[3]->node[1]] 	4281996
scalar abilene_nodelay_network.node[10].core_layer 	slots_sent[face$o[4]->node[9]] 	4682916
scalar abilene_nodelay_network.node[10].content_store 	p_hit[10] 	0.16187187702319
scalar abilene_nodelay_network.node[10].content_store 	hits[10] 	9751
scalar abilene_nodelay_network.node[10].content_store 	misses[10] 	50488
scalar abilene_nodelay_network.node[10].content_store 	decision_yes[10] 	20570
scalar abilene_nodelay_network.node[10].content_store 	decision_no[10] 	29918
scalar abilene_nodelay_network.node[10].content_store 	decision_ratio[10] 	0.40742354618919
scalar abilene_nodelay_network.node[10].content_store 	"representation_breakdown[10] 1:0:1:0:0:" 	0
scalar abilene_nodelay_network.node[10].proactive_component 	hdistance[10].proactive_component 	2.4545171083942
scalar abilene_nodelay_network.node[10].proactive_component 	downloads[10].proactive_component 	121870
scalar abilene_nodelay_network.node[10].proactive_component 	avg_time[10].proactive_component 	0
scalar abilene_nodelay_network.node[10].proactive_component 	interests_sent[10].proactive_component 	121870
scalar abilene_nodelay_network.client[0] 	hdistance[0].real 	1.4436307146027
scalar abilene_nodelay_network.client[0] 	downloads[0].real 	18024
scalar abilene_nodelay_network.client[0] 	avg_time[0].real 	0
scalar abilene_nodelay_network.client[0] 	interests_sent[0].real 	18024
scalar abilene_nodelay_network.client[1] 	hdistance[1].real 	1.3944642459345
scalar abilene_nodelay_network.client[1] 	downloads[1].real 	17956
scalar abilene_nodelay_network.client[1] 	avg_time[1].real 	0
scalar abilene_nodelay_network.client[1] 	interests_sent[1].real 	17956
scalar abilene_nodelay_network.client[2] 	hdistance[2].real 	1.3579415855355
scalar abilene_nodelay_network.client[2] 	downloads[2].real 	17975
scalar abilene_nodelay_network.client[2] 	avg_time[2].real 	0
scalar abilene_nodelay_network.client[2] 	interests_sent[2].real 	17975
scalar abilene_nodelay_network.client[3] 	hdistance[3].real 	1.4475838098442
scalar abilene_nodelay_network.client[3] 	downloads[3].real 	17838
scalar abilene_nodelay_network.client[3] 	avg_time[3].real 	0
scalar abilene_nodelay_network.client[3] 	interests_sent[3].real 	17838
scalar abilene_nodelay_network.client[4] 	hdistance[4].real 	1.7488101826231
scalar abilene_nodelay_network.client[4] 	downloads[4].real 	18070
scalar abilene_nodelay_network.client[4] 	avg_time[4].real 	0
scalar abilene_nodelay_network.client[4] 	interests_sent[4].real 	18070
scalar abilene_nodelay_network.client[5] 	hdistance[5].real 	1.5636516381966
scalar abilene_nodelay_network.client[5] 	downloads[5].real 	17855
scalar abilene_nodelay_network.client[5] 	avg_time[5].real 	0
scalar abilene_nodelay_network.client[5] 	interests_sent[5].real 	17855
scalar abilene_nodelay_network.client[6] 	hdistance[6].real 	1.7305091376516
scalar abilene_nodelay_network.client[6] 	downloads[6].real 	17893
scalar abilene_nodelay_network.client[6] 	avg_time[6].real 	0
scalar abilene_nodelay_network.client[6] 	interests_sent[6].real 	17893
scalar abilene_nodelay_network.client[7] 	hdistance[7].real 	1.4572813910717
scalar abilene_nodelay_network.client[7] 	downloads[7].real 	17943
scalar abilene_nodelay_network.client[7] 	avg_time[7].real 	0
scalar abilene_nodelay_network.client[7] 	interests_sent[7].real 	17943
scalar abilene_nodelay_network.client[8] 	hdistance[8].real 	1.3699983257994
scalar abilene_nodelay_network.client[8] 	downloads[8].real 	17919
scalar abilene_nodelay_network.client[8] 	avg_time[8].real 	0
scalar abilene_nodelay_network.client[8] 	interests_sent[8].real 	17919
scalar abilene_nodelay_network.client[9] 	hdistance[9].real 	1.4580868400491
scalar abilene_nodelay_network.client[9] 	downloads[9].real 	17918
scalar abilene_nodelay_network.client[9] 	avg_time[9].real 	0
scalar abilene_nodelay_network.client[9] 	interests_sent[9].real 	17918
scalar abilene_nodelay_network.client[10] 	hdistance[10].real 	1.3623220517366
scalar abilene_nodelay_network.client[10] 	downloads[10].real 	18053
scalar abilene_nodelay_network.client[10] 	avg_time[10].real 	0
scalar abilene_nodelay_network.client[10] 	interests_sent[10].real 	18053
