version 2
run General-0-20150720-14:11:02-11914
attr C 1e3
attr D lce
attr F spr
attr R lru
attr a 1
attr brates 1
attr configname General
attr ctlg 1e5
attr datetime 20150720-14:11:02
attr experiment General
attr inifile omnetpp.ini
attr iterationvars "$net=abilene_nodelay, $rep=0, $lambda=100, $a=1, $ctlg=1e5, $brates=1, $F=spr, $ttl=1000, $D=lce, $R=lru, $C=1e3, $window=60, $variance=0.05, $mytime=1800"
attr iterationvars2 "$net=abilene_nodelay, $rep=0, $lambda=100, $a=1, $ctlg=1e5, $brates=1, $F=spr, $ttl=1000, $D=lce, $R=lru, $C=1e3, $window=60, $variance=0.05, $mytime=1800, $repetition=0"
attr lambda 100
attr measurement "$net=abilene_nodelay, $rep=0, $lambda=100, $a=1, $ctlg=1e5, $brates=1, $F=spr, $ttl=1000, $D=lce, $R=lru, $C=1e3, $window=60, $variance=0.05, $mytime=1800"
attr mytime 1800
attr net abilene_nodelay
attr network networks.${net=abilene_nodelay}_network
attr processid 11914
attr rep 0
attr repetition 0
attr replication #0
attr resultdir results
attr runnumber 0
attr seedset 0
attr ttl 1000
attr variance 0.05
attr window 60

scalar . 	C 	1e3
scalar . 	a 	1
scalar . 	brates 	1
scalar . 	ctlg 	1e5
scalar . 	lambda 	100
scalar . 	mytime 	1800
scalar . 	rep 	0
scalar . 	ttl 	1000
scalar . 	variance 	0.05
scalar . 	window 	60
scalar abilene_nodelay_network.content_distribution 	repo-0 	5
scalar abilene_nodelay_network.content_distribution 	repo-1 	8
scalar abilene_nodelay_network.content_distribution 	repo-2 	9
scalar abilene_nodelay_network.content_distribution 	repo-3 	0
scalar abilene_nodelay_network.content_distribution 	repo-4 	1
scalar abilene_nodelay_network.content_distribution 	repo-5 	7
scalar abilene_nodelay_network.content_distribution 	repo-6 	6
scalar abilene_nodelay_network.content_distribution 	repo-7 	2
scalar abilene_nodelay_network.content_distribution 	repo-8 	4
scalar abilene_nodelay_network.content_distribution 	repo-9 	10
scalar abilene_nodelay_network.content_distribution 	repo-10 	3
scalar abilene_nodelay_network.content_distribution 	client-0 	10
scalar abilene_nodelay_network.content_distribution 	client-1 	9
scalar abilene_nodelay_network.content_distribution 	client-2 	8
scalar abilene_nodelay_network.content_distribution 	client-3 	7
scalar abilene_nodelay_network.content_distribution 	client-4 	3
scalar abilene_nodelay_network.content_distribution 	client-5 	6
scalar abilene_nodelay_network.content_distribution 	client-6 	5
scalar abilene_nodelay_network.content_distribution 	client-7 	1
scalar abilene_nodelay_network.content_distribution 	client-8 	4
scalar abilene_nodelay_network.content_distribution 	client-9 	0
scalar abilene_nodelay_network.content_distribution 	client-10 	2
scalar abilene_nodelay_network.content_distribution 	repo-0_card 	9071
scalar abilene_nodelay_network.content_distribution 	repo-0_price 	0
scalar abilene_nodelay_network.content_distribution 	repo-1_card 	8986
scalar abilene_nodelay_network.content_distribution 	repo-1_price 	0
scalar abilene_nodelay_network.content_distribution 	repo-2_card 	9050
scalar abilene_nodelay_network.content_distribution 	repo-2_price 	0
scalar abilene_nodelay_network.content_distribution 	repo-3_card 	8986
scalar abilene_nodelay_network.content_distribution 	repo-3_price 	0
scalar abilene_nodelay_network.content_distribution 	repo-4_card 	9064
scalar abilene_nodelay_network.content_distribution 	repo-4_price 	0
scalar abilene_nodelay_network.content_distribution 	repo-5_card 	9170
scalar abilene_nodelay_network.content_distribution 	repo-5_price 	0
scalar abilene_nodelay_network.content_distribution 	repo-6_card 	9151
scalar abilene_nodelay_network.content_distribution 	repo-6_price 	0
scalar abilene_nodelay_network.content_distribution 	repo-7_card 	9112
scalar abilene_nodelay_network.content_distribution 	repo-7_price 	0
scalar abilene_nodelay_network.content_distribution 	repo-8_card 	9132
scalar abilene_nodelay_network.content_distribution 	repo-8_price 	0
scalar abilene_nodelay_network.content_distribution 	repo-9_card 	9101
scalar abilene_nodelay_network.content_distribution 	repo-9_price 	0
scalar abilene_nodelay_network.content_distribution 	repo-10_card 	9177
scalar abilene_nodelay_network.content_distribution 	repo-10_price 	0
scalar abilene_nodelay_network.statistics 	stabilization_time 	79.4
scalar abilene_nodelay_network.statistics 	p_hit 	0.23157630621211
scalar abilene_nodelay_network.statistics 	interests 	377535.09090909
scalar abilene_nodelay_network.statistics 	data 	197410.54545455
scalar abilene_nodelay_network.statistics 	hdistance 	1.6105402392158
scalar abilene_nodelay_network.statistics 	avg_time 	0
scalar abilene_nodelay_network.statistics 	downloads 	1981370
scalar abilene_nodelay_network.statistics 	total_cost 	0
scalar abilene_nodelay_network.statistics 	total_replicas 	100000
scalar abilene_nodelay_network.statistics 	"representations_downloaded 1:" 	0
scalar abilene_nodelay_network.statistics 	"slots_per_representation 100:" 	0
scalar abilene_nodelay_network.statistics 	inner_hit 	0.48537628004865
scalar abilene_nodelay_network.statistics 	execution_time 	45
scalar abilene_nodelay_network.node[0].core_layer 	interests[0] 	253463
scalar abilene_nodelay_network.node[0].core_layer 	repo_load[0] 	85450
scalar abilene_nodelay_network.node[0].core_layer 	data[0] 	86636
scalar abilene_nodelay_network.node[0].core_layer 	slots_sent[face$o[1]->client[0]] 	18079900
scalar abilene_nodelay_network.node[0].core_layer 	slots_sent[face$o[2]->node[1]] 	5650300
scalar abilene_nodelay_network.node[0].core_layer 	slots_sent[face$o[3]->node[10]] 	1616100
scalar abilene_nodelay_network.node[0].content_store 	p_hit[0] 	0.32106066763196
scalar abilene_nodelay_network.node[0].content_store 	hits[0] 	81377
scalar abilene_nodelay_network.node[0].content_store 	misses[0] 	172086
scalar abilene_nodelay_network.node[0].content_store 	decision_yes[0] 	86636
scalar abilene_nodelay_network.node[0].content_store 	decision_no[0] 	85450
scalar abilene_nodelay_network.node[0].content_store 	decision_ratio[0] 	0.50344595144288
scalar abilene_nodelay_network.node[1].core_layer 	interests[1] 	441592
scalar abilene_nodelay_network.node[1].core_layer 	repo_load[1] 	96148
scalar abilene_nodelay_network.node[1].core_layer 	data[1] 	257788
scalar abilene_nodelay_network.node[1].core_layer 	slots_sent[face$o[1]->client[1]] 	18051700
scalar abilene_nodelay_network.node[1].core_layer 	slots_sent[face$o[2]->node[0]] 	6914100
scalar abilene_nodelay_network.node[1].core_layer 	slots_sent[face$o[3]->node[10]] 	5301300
scalar abilene_nodelay_network.node[1].core_layer 	slots_sent[face$o[4]->node[2]] 	13892100
scalar abilene_nodelay_network.node[1].content_store 	p_hit[1] 	0.19849997282559
scalar abilene_nodelay_network.node[1].content_store 	hits[1] 	87656
scalar abilene_nodelay_network.node[1].content_store 	misses[1] 	353936
scalar abilene_nodelay_network.node[1].content_store 	decision_yes[1] 	257788
scalar abilene_nodelay_network.node[1].content_store 	decision_no[1] 	96148
scalar abilene_nodelay_network.node[1].content_store 	decision_ratio[1] 	0.7283463677049
scalar abilene_nodelay_network.node[2].core_layer 	interests[2] 	585335
scalar abilene_nodelay_network.node[2].core_layer 	repo_load[2] 	108707
scalar abilene_nodelay_network.node[2].core_layer 	data[2] 	382505
scalar abilene_nodelay_network.node[2].core_layer 	slots_sent[face$o[1]->client[2]] 	17996600
scalar abilene_nodelay_network.node[2].core_layer 	slots_sent[face$o[2]->node[1]] 	15263900
scalar abilene_nodelay_network.node[2].core_layer 	slots_sent[face$o[3]->node[3]] 	18063800
scalar abilene_nodelay_network.node[2].core_layer 	slots_sent[face$o[4]->node[8]] 	7209200
scalar abilene_nodelay_network.node[2].content_store 	p_hit[2] 	0.16080193393527
scalar abilene_nodelay_network.node[2].content_store 	hits[2] 	94123
scalar abilene_nodelay_network.node[2].content_store 	misses[2] 	491212
scalar abilene_nodelay_network.node[2].content_store 	decision_yes[2] 	382505
scalar abilene_nodelay_network.node[2].content_store 	decision_no[2] 	108707
scalar abilene_nodelay_network.node[2].content_store 	decision_ratio[2] 	0.77869636735259
scalar abilene_nodelay_network.node[3].core_layer 	interests[3] 	550639
scalar abilene_nodelay_network.node[3].core_layer 	repo_load[3] 	94553
scalar abilene_nodelay_network.node[3].core_layer 	data[3] 	354921
scalar abilene_nodelay_network.node[3].core_layer 	slots_sent[face$o[1]->client[3]] 	17957300
scalar abilene_nodelay_network.node[3].core_layer 	slots_sent[face$o[2]->node[2]] 	17900000
scalar abilene_nodelay_network.node[3].core_layer 	slots_sent[face$o[3]->node[4]] 	11141300
scalar abilene_nodelay_network.node[3].core_layer 	slots_sent[face$o[4]->node[7]] 	8065300
scalar abilene_nodelay_network.node[3].content_store 	p_hit[3] 	0.18372291101793
scalar abilene_nodelay_network.node[3].content_store 	hits[3] 	101165
scalar abilene_nodelay_network.node[3].content_store 	misses[3] 	449474
scalar abilene_nodelay_network.node[3].content_store 	decision_yes[3] 	354921
scalar abilene_nodelay_network.node[3].content_store 	decision_no[3] 	94553
scalar abilene_nodelay_network.node[3].content_store 	decision_ratio[3] 	0.78963633046628
scalar abilene_nodelay_network.node[4].core_layer 	interests[4] 	339664
scalar abilene_nodelay_network.node[4].core_layer 	repo_load[4] 	86643
scalar abilene_nodelay_network.node[4].core_layer 	data[4] 	163952
scalar abilene_nodelay_network.node[4].core_layer 	slots_sent[face$o[1]->client[4]] 	17981900
scalar abilene_nodelay_network.node[4].core_layer 	slots_sent[face$o[2]->node[3]] 	9972000
scalar abilene_nodelay_network.node[4].core_layer 	slots_sent[face$o[3]->node[5]] 	6012500
scalar abilene_nodelay_network.node[4].content_store 	p_hit[4] 	0.26222678882661
scalar abilene_nodelay_network.node[4].content_store 	hits[4] 	89069
scalar abilene_nodelay_network.node[4].content_store 	misses[4] 	250595
scalar abilene_nodelay_network.node[4].content_store 	decision_yes[4] 	163952
scalar abilene_nodelay_network.node[4].content_store 	decision_no[4] 	86643
scalar abilene_nodelay_network.node[4].content_store 	decision_ratio[4] 	0.6542508828987
scalar abilene_nodelay_network.node[5].core_layer 	interests[5] 	271379
scalar abilene_nodelay_network.node[5].core_layer 	repo_load[5] 	100563
scalar abilene_nodelay_network.node[5].core_layer 	data[5] 	102002
scalar abilene_nodelay_network.node[5].core_layer 	slots_sent[face$o[1]->client[5]] 	18016000
scalar abilene_nodelay_network.node[5].core_layer 	slots_sent[face$o[2]->node[4]] 	5253900
scalar abilene_nodelay_network.node[5].core_layer 	slots_sent[face$o[3]->node[6]] 	3868000
scalar abilene_nodelay_network.node[5].content_store 	p_hit[5] 	0.25357157333471
scalar abilene_nodelay_network.node[5].content_store 	hits[5] 	68814
scalar abilene_nodelay_network.node[5].content_store 	misses[5] 	202565
scalar abilene_nodelay_network.node[5].content_store 	decision_yes[5] 	102002
scalar abilene_nodelay_network.node[5].content_store 	decision_no[5] 	100563
scalar abilene_nodelay_network.node[5].content_store 	decision_ratio[5] 	0.50355194628885
scalar abilene_nodelay_network.node[6].core_layer 	interests[6] 	303763
scalar abilene_nodelay_network.node[6].core_layer 	repo_load[6] 	85607
scalar abilene_nodelay_network.node[6].core_layer 	data[6] 	133269
scalar abilene_nodelay_network.node[6].core_layer 	slots_sent[face$o[1]->client[6]] 	17993000
scalar abilene_nodelay_network.node[6].core_layer 	slots_sent[face$o[2]->node[5]] 	4187700
scalar abilene_nodelay_network.node[6].core_layer 	slots_sent[face$o[3]->node[7]] 	8195600
scalar abilene_nodelay_network.node[6].content_store 	p_hit[6] 	0.27945141442506
scalar abilene_nodelay_network.node[6].content_store 	hits[6] 	84887
scalar abilene_nodelay_network.node[6].content_store 	misses[6] 	218876
scalar abilene_nodelay_network.node[6].content_store 	decision_yes[6] 	133269
scalar abilene_nodelay_network.node[6].content_store 	decision_no[6] 	85607
scalar abilene_nodelay_network.node[6].content_store 	decision_ratio[6] 	0.60887899998172
scalar abilene_nodelay_network.node[7].core_layer 	interests[7] 	416420
scalar abilene_nodelay_network.node[7].core_layer 	repo_load[7] 	92959
scalar abilene_nodelay_network.node[7].core_layer 	data[7] 	226818
scalar abilene_nodelay_network.node[7].core_layer 	slots_sent[face$o[1]->client[7]] 	18068900
scalar abilene_nodelay_network.node[7].core_layer 	slots_sent[face$o[2]->node[3]] 	7456300
scalar abilene_nodelay_network.node[7].core_layer 	slots_sent[face$o[3]->node[6]] 	9458900
scalar abilene_nodelay_network.node[7].core_layer 	slots_sent[face$o[4]->node[8]] 	6657900
scalar abilene_nodelay_network.node[7].content_store 	p_hit[7] 	0.23208059171029
scalar abilene_nodelay_network.node[7].content_store 	hits[7] 	96643
scalar abilene_nodelay_network.node[7].content_store 	misses[7] 	319777
scalar abilene_nodelay_network.node[7].content_store 	decision_yes[7] 	226818
scalar abilene_nodelay_network.node[7].content_store 	decision_no[7] 	92959
scalar abilene_nodelay_network.node[7].content_store 	decision_ratio[7] 	0.70930054381647
scalar abilene_nodelay_network.node[8].core_layer 	interests[8] 	394593
scalar abilene_nodelay_network.node[8].core_layer 	repo_load[8] 	85562
scalar abilene_nodelay_network.node[8].core_layer 	data[8] 	213042
scalar abilene_nodelay_network.node[8].core_layer 	slots_sent[face$o[1]->client[8]] 	18027700
scalar abilene_nodelay_network.node[8].core_layer 	slots_sent[face$o[2]->node[2]] 	6458400
scalar abilene_nodelay_network.node[8].core_layer 	slots_sent[face$o[3]->node[7]] 	6420900
scalar abilene_nodelay_network.node[8].core_layer 	slots_sent[face$o[4]->node[9]] 	8552300
scalar abilene_nodelay_network.node[8].content_store 	p_hit[8] 	0.24326077756068
scalar abilene_nodelay_network.node[8].content_store 	hits[8] 	95989
scalar abilene_nodelay_network.node[8].content_store 	misses[8] 	298604
scalar abilene_nodelay_network.node[8].content_store 	decision_yes[8] 	213042
scalar abilene_nodelay_network.node[8].content_store 	decision_no[8] 	85562
scalar abilene_nodelay_network.node[8].content_store 	decision_ratio[8] 	0.71345996704666
scalar abilene_nodelay_network.node[9].core_layer 	interests[9] 	302848
scalar abilene_nodelay_network.node[9].core_layer 	repo_load[9] 	88124
scalar abilene_nodelay_network.node[9].core_layer 	data[9] 	132327
scalar abilene_nodelay_network.node[9].core_layer 	slots_sent[face$o[1]->client[9]] 	17939500
scalar abilene_nodelay_network.node[9].core_layer 	slots_sent[face$o[2]->node[10]] 	4908200
scalar abilene_nodelay_network.node[9].core_layer 	slots_sent[face$o[3]->node[8]] 	7437100
scalar abilene_nodelay_network.node[9].content_store 	p_hit[9] 	0.2720737795858
scalar abilene_nodelay_network.node[9].content_store 	hits[9] 	82397
scalar abilene_nodelay_network.node[9].content_store 	misses[9] 	220451
scalar abilene_nodelay_network.node[9].content_store 	decision_yes[9] 	132327
scalar abilene_nodelay_network.node[9].content_store 	decision_no[9] 	88124
scalar abilene_nodelay_network.node[9].content_store 	decision_ratio[9] 	0.60025583916607
scalar abilene_nodelay_network.node[10].core_layer 	interests[10] 	293190
scalar abilene_nodelay_network.node[10].core_layer 	repo_load[10] 	95344
scalar abilene_nodelay_network.node[10].core_layer 	data[10] 	118256
scalar abilene_nodelay_network.node[10].core_layer 	slots_sent[face$o[1]->client[10]] 	18024500
scalar abilene_nodelay_network.node[10].core_layer 	slots_sent[face$o[2]->node[0]] 	1749500
scalar abilene_nodelay_network.node[10].core_layer 	slots_sent[face$o[3]->node[1]] 	4864600
scalar abilene_nodelay_network.node[10].core_layer 	slots_sent[face$o[4]->node[9]] 	4680400
scalar abilene_nodelay_network.node[10].content_store 	p_hit[10] 	0.27146219175279
scalar abilene_nodelay_network.node[10].content_store 	hits[10] 	79590
scalar abilene_nodelay_network.node[10].content_store 	misses[10] 	213600
scalar abilene_nodelay_network.node[10].content_store 	decision_yes[10] 	118256
scalar abilene_nodelay_network.node[10].content_store 	decision_no[10] 	95344
scalar abilene_nodelay_network.node[10].content_store 	decision_ratio[10] 	0.5536329588015
scalar abilene_nodelay_network.client[0] 	hdistance[0].real 	1.7707398824109
scalar abilene_nodelay_network.client[0] 	downloads[0].real 	180799
scalar abilene_nodelay_network.client[0] 	avg_time[0].real 	0
scalar abilene_nodelay_network.client[1] 	hdistance[1].real 	1.6368984638566
scalar abilene_nodelay_network.client[1] 	downloads[1].real 	180517
scalar abilene_nodelay_network.client[1] 	avg_time[1].real 	0
scalar abilene_nodelay_network.client[2] 	hdistance[2].real 	1.4771956925197
scalar abilene_nodelay_network.client[2] 	downloads[2].real 	179966
scalar abilene_nodelay_network.client[2] 	avg_time[2].real 	0
scalar abilene_nodelay_network.client[3] 	hdistance[3].real 	1.4721867986836
scalar abilene_nodelay_network.client[3] 	downloads[3].real 	179573
scalar abilene_nodelay_network.client[3] 	avg_time[3].real 	0
scalar abilene_nodelay_network.client[4] 	hdistance[4].real 	1.6726708523571
scalar abilene_nodelay_network.client[4] 	downloads[4].real 	179819
scalar abilene_nodelay_network.client[4] 	avg_time[4].real 	0
scalar abilene_nodelay_network.client[5] 	hdistance[5].real 	1.8492673179396
scalar abilene_nodelay_network.client[5] 	downloads[5].real 	180160
scalar abilene_nodelay_network.client[5] 	avg_time[5].real 	0
scalar abilene_nodelay_network.client[6] 	hdistance[6].real 	1.690963152337
scalar abilene_nodelay_network.client[6] 	downloads[6].real 	179930
scalar abilene_nodelay_network.client[6] 	avg_time[6].real 	0
scalar abilene_nodelay_network.client[7] 	hdistance[7].real 	1.4599947976911
scalar abilene_nodelay_network.client[7] 	downloads[7].real 	180689
scalar abilene_nodelay_network.client[7] 	avg_time[7].real 	0
scalar abilene_nodelay_network.client[8] 	hdistance[8].real 	1.4233318726182
scalar abilene_nodelay_network.client[8] 	downloads[8].real 	180277
scalar abilene_nodelay_network.client[8] 	avg_time[8].real 	0
scalar abilene_nodelay_network.client[9] 	hdistance[9].real 	1.5885225340728
scalar abilene_nodelay_network.client[9] 	downloads[9].real 	179395
scalar abilene_nodelay_network.client[9] 	avg_time[9].real 	0
scalar abilene_nodelay_network.client[10] 	hdistance[10].real 	1.6741712668867
scalar abilene_nodelay_network.client[10] 	downloads[10].real 	180245
scalar abilene_nodelay_network.client[10] 	avg_time[10].real 	0
