version 2
run General-55-20140715-14:32:30-30296
attr D costprobtailcons
attr F nrr
attr R lru
attr a 1
attr configname General
attr csize 1e5
attr ctlg 1e7
attr datetime 20140715-14:32:30
attr experiment General
attr inifile omnetpp.ini
attr iterationvars "$net=one_cache_scenario_3_links, $rep=14, $priceratiovalue=10, $weights=0.333_0.333_0.334, $lambda=100, $a=1, $ctlg=1e7, $F=nrr, $ttl=1000, $D=costprobtailcons, $xi=1, $R=lru, $csize=1e5, $pricebits=0, $window=60, $variance=0.05, $mytime=180000"
attr iterationvars2 "$net=one_cache_scenario_3_links, $rep=14, $priceratiovalue=10, $weights=0.333_0.333_0.334, $lambda=100, $a=1, $ctlg=1e7, $F=nrr, $ttl=1000, $D=costprobtailcons, $xi=1, $R=lru, $csize=1e5, $pricebits=0, $window=60, $variance=0.05, $mytime=180000, $repetition=0"
attr lambda 100
attr measurement "$net=one_cache_scenario_3_links, $rep=14, $priceratiovalue=10, $weights=0.333_0.333_0.334, $lambda=100, $a=1, $ctlg=1e7, $F=nrr, $ttl=1000, $D=costprobtailcons, $xi=1, $R=lru, $csize=1e5, $pricebits=0, $window=60, $variance=0.05, $mytime=180000"
attr mytime 180000
attr net one_cache_scenario_3_links
attr network networks.${net=one_cache_scenario_3_links}_network
attr pricebits 0
attr priceratiovalue 10
attr processid 30296
attr rep 14
attr repetition 0
attr replication #0
attr resultdir results
attr runnumber 55
attr seedset 14
attr ttl 1000
attr variance 0.05
attr weights 0.333_0.333_0.334
attr window 60
attr xi 1

scalar . 	a 	1
scalar . 	csize 	1e5
scalar . 	ctlg 	1e7
scalar . 	lambda 	100
scalar . 	mytime 	180000
scalar . 	pricebits 	0
scalar . 	priceratiovalue 	10
scalar . 	rep 	14
scalar . 	ttl 	1000
scalar . 	variance 	0.05
scalar . 	window 	60
scalar . 	xi 	1
scalar one_cache_scenario_3_links_network.content_distribution 	repo-0 	4
scalar one_cache_scenario_3_links_network.content_distribution 	repo-1 	5
scalar one_cache_scenario_3_links_network.content_distribution 	repo-2 	6
scalar one_cache_scenario_3_links_network.content_distribution 	client-0 	0
scalar one_cache_scenario_3_links_network.content_distribution 	repo-0_card 	3329013
scalar one_cache_scenario_3_links_network.content_distribution 	repo-1_card 	3331666
scalar one_cache_scenario_3_links_network.content_distribution 	repo-2_card 	3339321
scalar one_cache_scenario_3_links_network.statistics 	repo_popularity[0] 	0.39281710917248
scalar one_cache_scenario_3_links_network.statistics 	repo_popularity[1] 	0.32257673239349
scalar one_cache_scenario_3_links_network.statistics 	repo_popularity[2] 	0.28460615843403
scalar one_cache_scenario_3_links_network.statistics 	stabilization_time 	3893.2
scalar one_cache_scenario_3_links_network.node[1].face$o[2].channel 	price[1] 	0
scalar one_cache_scenario_3_links_network.node[1].face$o[2].channel 	represented_price[1] 	0
scalar one_cache_scenario_3_links_network.node[2].face$o[2].channel 	price[2] 	0
scalar one_cache_scenario_3_links_network.node[2].face$o[2].channel 	represented_price[2] 	0
scalar one_cache_scenario_3_links_network.node[3].face$o[2].channel 	price[3] 	0
scalar one_cache_scenario_3_links_network.node[3].face$o[2].channel 	represented_price[3] 	0
scalar one_cache_scenario_3_links_network.node[4].face$o[1].channel 	price[4] 	0
scalar one_cache_scenario_3_links_network.node[4].face$o[1].channel 	represented_price[4] 	0
scalar one_cache_scenario_3_links_network.node[5].face$o[1].channel 	price[5] 	1
scalar one_cache_scenario_3_links_network.node[5].face$o[1].channel 	represented_price[5] 	1
scalar one_cache_scenario_3_links_network.node[6].face$o[1].channel 	price[6] 	10
scalar one_cache_scenario_3_links_network.node[6].face$o[1].channel 	represented_price[6] 	10
scalar one_cache_scenario_3_links_network.statistics 	p_hit 	0.19588024863863
scalar one_cache_scenario_3_links_network.statistics 	interests 	5540708.8571429
scalar one_cache_scenario_3_links_network.statistics 	data 	2970262.2857143
scalar one_cache_scenario_3_links_network.statistics 	hdistance 	1.1555432891427
scalar one_cache_scenario_3_links_network.statistics 	avg_time 	0
scalar one_cache_scenario_3_links_network.statistics 	downloads 	17993126
scalar one_cache_scenario_3_links_network.statistics 	total_cost 	17314677
scalar one_cache_scenario_3_links_network.statistics 	total_replicas 	10000000
scalar one_cache_scenario_3_links_network.statistics 	inner_hit 	0.42222835542862
scalar one_cache_scenario_3_links_network.statistics 	interests_sent 	17993126
scalar one_cache_scenario_3_links_network.node[0].core_layer 	interests[0] 	17993126
scalar one_cache_scenario_3_links_network.node[0].core_layer 	data[0] 	10395918
scalar one_cache_scenario_3_links_network.node[0].core_layer 	repo_int[0] 	10395918
scalar one_cache_scenario_3_links_network.node[0].content_store 	p_hit[0] 	0.42222835542862
scalar one_cache_scenario_3_links_network.node[0].content_store 	hits[0] 	7597208
scalar one_cache_scenario_3_links_network.node[0].content_store 	misses[0] 	10395918
scalar one_cache_scenario_3_links_network.node[0].content_store 	decision_yes[0] 	128318
scalar one_cache_scenario_3_links_network.node[0].content_store 	decision_no[0] 	10267600
scalar one_cache_scenario_3_links_network.node[0].content_store 	decision_ratio[0] 	0.012343113902976
scalar one_cache_scenario_3_links_network.node[0].content_store 	correction_factor[0] 	1.2452600496365e-316
scalar one_cache_scenario_3_links_network.node[0].content_store 	xi[0] 	1
scalar one_cache_scenario_3_links_network.node[1].core_layer 	interests[1] 	7069698
scalar one_cache_scenario_3_links_network.node[1].core_layer 	data[1] 	7069698
scalar one_cache_scenario_3_links_network.node[1].content_store 	p_hit[1] 	0
scalar one_cache_scenario_3_links_network.node[1].content_store 	hits[1] 	0
scalar one_cache_scenario_3_links_network.node[1].content_store 	misses[1] 	7069698
scalar one_cache_scenario_3_links_network.node[1].content_store 	decision_yes[1] 	0
scalar one_cache_scenario_3_links_network.node[1].content_store 	decision_no[1] 	7069698
scalar one_cache_scenario_3_links_network.node[1].content_store 	decision_ratio[1] 	0
scalar one_cache_scenario_3_links_network.node[2].core_layer 	interests[2] 	1771947
scalar one_cache_scenario_3_links_network.node[2].core_layer 	data[2] 	1771947
scalar one_cache_scenario_3_links_network.node[2].content_store 	p_hit[2] 	0
scalar one_cache_scenario_3_links_network.node[2].content_store 	hits[2] 	0
scalar one_cache_scenario_3_links_network.node[2].content_store 	misses[2] 	1771947
scalar one_cache_scenario_3_links_network.node[2].content_store 	decision_yes[2] 	0
scalar one_cache_scenario_3_links_network.node[2].content_store 	decision_no[2] 	1771947
scalar one_cache_scenario_3_links_network.node[2].content_store 	decision_ratio[2] 	0
scalar one_cache_scenario_3_links_network.node[3].core_layer 	interests[3] 	1554273
scalar one_cache_scenario_3_links_network.node[3].core_layer 	data[3] 	1554273
scalar one_cache_scenario_3_links_network.node[3].content_store 	p_hit[3] 	0
scalar one_cache_scenario_3_links_network.node[3].content_store 	hits[3] 	0
scalar one_cache_scenario_3_links_network.node[3].content_store 	misses[3] 	1554273
scalar one_cache_scenario_3_links_network.node[3].content_store 	decision_yes[3] 	0
scalar one_cache_scenario_3_links_network.node[3].content_store 	decision_no[3] 	1554273
scalar one_cache_scenario_3_links_network.node[3].content_store 	decision_ratio[3] 	0
scalar one_cache_scenario_3_links_network.node[4].core_layer 	interests[4] 	7069698
scalar one_cache_scenario_3_links_network.node[4].core_layer 	repo_load[4] 	7069698
scalar one_cache_scenario_3_links_network.node[4].core_layer 	data[4] 	0
scalar one_cache_scenario_3_links_network.node[4].content_store 	p_hit[4] 	0
scalar one_cache_scenario_3_links_network.node[4].content_store 	hits[4] 	0
scalar one_cache_scenario_3_links_network.node[4].content_store 	misses[4] 	7069698
scalar one_cache_scenario_3_links_network.node[4].content_store 	decision_yes[4] 	0
scalar one_cache_scenario_3_links_network.node[4].content_store 	decision_no[4] 	7069698
scalar one_cache_scenario_3_links_network.node[4].content_store 	decision_ratio[4] 	0
scalar one_cache_scenario_3_links_network.node[5].core_layer 	interests[5] 	1771947
scalar one_cache_scenario_3_links_network.node[5].core_layer 	repo_load[5] 	1771947
scalar one_cache_scenario_3_links_network.node[5].core_layer 	data[5] 	0
scalar one_cache_scenario_3_links_network.node[5].content_store 	p_hit[5] 	0
scalar one_cache_scenario_3_links_network.node[5].content_store 	hits[5] 	0
scalar one_cache_scenario_3_links_network.node[5].content_store 	misses[5] 	1771947
scalar one_cache_scenario_3_links_network.node[5].content_store 	decision_yes[5] 	0
scalar one_cache_scenario_3_links_network.node[5].content_store 	decision_no[5] 	1771947
scalar one_cache_scenario_3_links_network.node[5].content_store 	decision_ratio[5] 	0
scalar one_cache_scenario_3_links_network.node[6].core_layer 	interests[6] 	1554273
scalar one_cache_scenario_3_links_network.node[6].core_layer 	repo_load[6] 	1554273
scalar one_cache_scenario_3_links_network.node[6].core_layer 	data[6] 	0
scalar one_cache_scenario_3_links_network.node[6].content_store 	p_hit[6] 	0
scalar one_cache_scenario_3_links_network.node[6].content_store 	hits[6] 	0
scalar one_cache_scenario_3_links_network.node[6].content_store 	misses[6] 	1554273
scalar one_cache_scenario_3_links_network.node[6].content_store 	decision_yes[6] 	0
scalar one_cache_scenario_3_links_network.node[6].content_store 	decision_no[6] 	1554273
scalar one_cache_scenario_3_links_network.node[6].content_store 	decision_ratio[6] 	0
scalar one_cache_scenario_3_links_network.client[0] 	hdistance[0] 	1.1555432891427
scalar one_cache_scenario_3_links_network.client[0] 	downloads[0] 	17993126
scalar one_cache_scenario_3_links_network.client[0] 	avg_time[0] 	0
scalar one_cache_scenario_3_links_network.client[0] 	interests_sent[0] 	17993126
