version 2
run General-5-20150723-15:18:46-25205
attr C 1e4
attr D lce
attr F spr
attr R partitioneds
attr a 1
attr brates 0.3_0.7_1.5_2.5_3.5
attr configname General
attr ctlg 1e6
attr datetime 20150723-15:18:46
attr experiment General
attr inifile omnetpp.ini
attr iterationvars "$net=abilene_nodelay, $rep=2, $lambda=100, $a=1, $ctlg=1e6, $brates=0.3_0.7_1.5_2.5_3.5, $F=spr, $ttl=1000, $D=lce, $R=partitioneds, $C=1e4, $window=60, $variance=0.05, $mytime=1800"
attr iterationvars2 "$net=abilene_nodelay, $rep=2, $lambda=100, $a=1, $ctlg=1e6, $brates=0.3_0.7_1.5_2.5_3.5, $F=spr, $ttl=1000, $D=lce, $R=partitioneds, $C=1e4, $window=60, $variance=0.05, $mytime=1800, $repetition=0"
attr lambda 100
attr measurement "$net=abilene_nodelay, $rep=2, $lambda=100, $a=1, $ctlg=1e6, $brates=0.3_0.7_1.5_2.5_3.5, $F=spr, $ttl=1000, $D=lce, $R=partitioneds, $C=1e4, $window=60, $variance=0.05, $mytime=1800"
attr mytime 1800
attr net abilene_nodelay
attr network networks.${net=abilene_nodelay}_network
attr processid 25205
attr rep 2
attr repetition 0
attr replication #0
attr resultdir results
attr runnumber 5
attr seedset 2
attr ttl 1000
attr variance 0.05
attr window 60

scalar . 	C 	1e4
scalar . 	a 	1
scalar . 	ctlg 	1e6
scalar . 	lambda 	100
scalar . 	mytime 	1800
scalar . 	rep 	2
scalar . 	ttl 	1000
scalar . 	variance 	0.05
scalar . 	window 	60
scalar abilene_nodelay_network.content_distribution 	repo-0 	4
scalar abilene_nodelay_network.content_distribution 	repo-1 	9
scalar abilene_nodelay_network.content_distribution 	repo-2 	6
scalar abilene_nodelay_network.content_distribution 	repo-3 	3
scalar abilene_nodelay_network.content_distribution 	repo-4 	7
scalar abilene_nodelay_network.content_distribution 	repo-5 	8
scalar abilene_nodelay_network.content_distribution 	repo-6 	10
scalar abilene_nodelay_network.content_distribution 	repo-7 	0
scalar abilene_nodelay_network.content_distribution 	repo-8 	5
scalar abilene_nodelay_network.content_distribution 	repo-9 	2
scalar abilene_nodelay_network.content_distribution 	repo-10 	1
scalar abilene_nodelay_network.content_distribution 	client-0 	0
scalar abilene_nodelay_network.content_distribution 	client-1 	6
scalar abilene_nodelay_network.content_distribution 	client-2 	7
scalar abilene_nodelay_network.content_distribution 	client-3 	10
scalar abilene_nodelay_network.content_distribution 	client-4 	9
scalar abilene_nodelay_network.content_distribution 	client-5 	3
scalar abilene_nodelay_network.content_distribution 	client-6 	5
scalar abilene_nodelay_network.content_distribution 	client-7 	4
scalar abilene_nodelay_network.content_distribution 	client-8 	1
scalar abilene_nodelay_network.content_distribution 	client-9 	2
scalar abilene_nodelay_network.content_distribution 	client-10 	8
scalar abilene_nodelay_network.content_distribution 	repo-0_card 	90921
scalar abilene_nodelay_network.content_distribution 	repo-0_price 	0
scalar abilene_nodelay_network.content_distribution 	repo-1_card 	90802
scalar abilene_nodelay_network.content_distribution 	repo-1_price 	0
scalar abilene_nodelay_network.content_distribution 	repo-2_card 	90824
scalar abilene_nodelay_network.content_distribution 	repo-2_price 	0
scalar abilene_nodelay_network.content_distribution 	repo-3_card 	90856
scalar abilene_nodelay_network.content_distribution 	repo-3_price 	0
scalar abilene_nodelay_network.content_distribution 	repo-4_card 	90677
scalar abilene_nodelay_network.content_distribution 	repo-4_price 	0
scalar abilene_nodelay_network.content_distribution 	repo-5_card 	90934
scalar abilene_nodelay_network.content_distribution 	repo-5_price 	0
scalar abilene_nodelay_network.content_distribution 	repo-6_card 	90976
scalar abilene_nodelay_network.content_distribution 	repo-6_price 	0
scalar abilene_nodelay_network.content_distribution 	repo-7_card 	91202
scalar abilene_nodelay_network.content_distribution 	repo-7_price 	0
scalar abilene_nodelay_network.content_distribution 	repo-8_card 	91092
scalar abilene_nodelay_network.content_distribution 	repo-8_price 	0
scalar abilene_nodelay_network.content_distribution 	repo-9_card 	90956
scalar abilene_nodelay_network.content_distribution 	repo-9_price 	0
scalar abilene_nodelay_network.content_distribution 	repo-10_card 	90760
scalar abilene_nodelay_network.content_distribution 	repo-10_price 	0
scalar abilene_nodelay_network.statistics 	stabilization_time 	36060
scalar abilene_nodelay_network.statistics 	p_hit 	0.32676401238415
scalar abilene_nodelay_network.statistics 	interests 	415046.81818182
scalar abilene_nodelay_network.statistics 	data 	187025.27272727
scalar abilene_nodelay_network.statistics 	hdistance 	0.96926605020942
scalar abilene_nodelay_network.statistics 	avg_time 	0
scalar abilene_nodelay_network.statistics 	downloads 	1978918
scalar abilene_nodelay_network.statistics 	total_cost 	0
scalar abilene_nodelay_network.statistics 	total_replicas 	1000000
scalar abilene_nodelay_network.statistics 	"representations_downloaded 0.396899:0.0600929:0.0451646:0.0403903:0.457454:" 	0
scalar abilene_nodelay_network.statistics 	"slots_per_representation 100:233:500:833:1167:" 	0
scalar abilene_nodelay_network.statistics 	inner_hit 	0.48639054271071
scalar abilene_nodelay_network.statistics 	execution_time 	2146
scalar abilene_nodelay_network.node[0].core_layer 	interests[0] 	279245
scalar abilene_nodelay_network.node[0].core_layer 	repo_load[0] 	91053
scalar abilene_nodelay_network.node[0].core_layer 	data[0] 	79914
scalar abilene_nodelay_network.node[0].core_layer 	slots_sent[face$o[1]->client[0]] 	117926297
scalar abilene_nodelay_network.node[0].core_layer 	slots_sent[face$o[2]->node[1]] 	20759902
scalar abilene_nodelay_network.node[0].core_layer 	slots_sent[face$o[3]->node[10]] 	5474505
scalar abilene_nodelay_network.node[0].content_store 	p_hit[0] 	0.38775269028989
scalar abilene_nodelay_network.node[0].content_store 	hits[0] 	108278
scalar abilene_nodelay_network.node[0].content_store 	misses[0] 	170967
scalar abilene_nodelay_network.node[0].content_store 	decision_yes[0] 	79914
scalar abilene_nodelay_network.node[0].content_store 	decision_no[0] 	91053
scalar abilene_nodelay_network.node[0].content_store 	decision_ratio[0] 	0.46742353787573
scalar abilene_nodelay_network.node[0].content_store 	"representation_breakdown[0] 0x7fffe620dc58:0x7fffe620dc58:0x7fffe620dc58:0x7fffe620dc58:0x7fffe620dc58:" 	0
scalar abilene_nodelay_network.node[0].proactive_component 	hdistance[0].proactive_component 	2.6462988535743
scalar abilene_nodelay_network.node[0].proactive_component 	downloads[0].proactive_component 	551802
scalar abilene_nodelay_network.node[0].proactive_component 	avg_time[0].proactive_component 	0
scalar abilene_nodelay_network.node[1].core_layer 	interests[1] 	485074
scalar abilene_nodelay_network.node[1].core_layer 	repo_load[1] 	110542
scalar abilene_nodelay_network.node[1].core_layer 	data[1] 	244843
scalar abilene_nodelay_network.node[1].core_layer 	slots_sent[face$o[1]->client[1]] 	96321832
scalar abilene_nodelay_network.node[1].core_layer 	slots_sent[face$o[2]->node[0]] 	23691405
scalar abilene_nodelay_network.node[1].core_layer 	slots_sent[face$o[3]->node[10]] 	17802224
scalar abilene_nodelay_network.node[1].core_layer 	slots_sent[face$o[4]->node[2]] 	49572225
scalar abilene_nodelay_network.node[1].content_store 	p_hit[1] 	0.26735920704882
scalar abilene_nodelay_network.node[1].content_store 	hits[1] 	129689
scalar abilene_nodelay_network.node[1].content_store 	misses[1] 	355385
scalar abilene_nodelay_network.node[1].content_store 	decision_yes[1] 	244843
scalar abilene_nodelay_network.node[1].content_store 	decision_no[1] 	110542
scalar abilene_nodelay_network.node[1].content_store 	decision_ratio[1] 	0.68895141888375
scalar abilene_nodelay_network.node[1].content_store 	"representation_breakdown[1] 0x7fffe620dc58:0x7fffe620dc58:0x7fffe620dc58:0x7fffe620dc58:0x7fffe620dc58:" 	0
scalar abilene_nodelay_network.node[1].proactive_component 	hdistance[1].proactive_component 	2.2186579110199
scalar abilene_nodelay_network.node[1].proactive_component 	downloads[1].proactive_component 	1197551
scalar abilene_nodelay_network.node[1].proactive_component 	avg_time[1].proactive_component 	0
scalar abilene_nodelay_network.node[2].core_layer 	interests[2] 	635161
scalar abilene_nodelay_network.node[2].core_layer 	repo_load[2] 	92999
scalar abilene_nodelay_network.node[2].core_layer 	data[2] 	367845
scalar abilene_nodelay_network.node[2].core_layer 	slots_sent[face$o[1]->client[2]] 	114208635
scalar abilene_nodelay_network.node[2].core_layer 	slots_sent[face$o[2]->node[1]] 	52181510
scalar abilene_nodelay_network.node[2].core_layer 	slots_sent[face$o[3]->node[3]] 	62577346
scalar abilene_nodelay_network.node[2].core_layer 	slots_sent[face$o[4]->node[8]] 	24620316
scalar abilene_nodelay_network.node[2].content_store 	p_hit[2] 	0.27444537684146
scalar abilene_nodelay_network.node[2].content_store 	hits[2] 	174317
scalar abilene_nodelay_network.node[2].content_store 	misses[2] 	460844
scalar abilene_nodelay_network.node[2].content_store 	decision_yes[2] 	367845
scalar abilene_nodelay_network.node[2].content_store 	decision_no[2] 	92999
scalar abilene_nodelay_network.node[2].content_store 	decision_ratio[2] 	0.79819852271051
scalar abilene_nodelay_network.node[2].content_store 	"representation_breakdown[2] 0x7fffe620dc58:0x7fffe620dc58:0x7fffe620dc58:0x7fffe620dc58:0x7fffe620dc58:" 	0
scalar abilene_nodelay_network.node[2].proactive_component 	hdistance[2].proactive_component 	2.0578090760242
scalar abilene_nodelay_network.node[2].proactive_component 	downloads[2].proactive_component 	1617272
scalar abilene_nodelay_network.node[2].proactive_component 	avg_time[2].proactive_component 	0
scalar abilene_nodelay_network.node[3].core_layer 	interests[3] 	597801
scalar abilene_nodelay_network.node[3].core_layer 	repo_load[3] 	89384
scalar abilene_nodelay_network.node[3].core_layer 	data[3] 	337711
scalar abilene_nodelay_network.node[3].core_layer 	slots_sent[face$o[1]->client[3]] 	116180831
scalar abilene_nodelay_network.node[3].core_layer 	slots_sent[face$o[2]->node[2]] 	61843863
scalar abilene_nodelay_network.node[3].core_layer 	slots_sent[face$o[3]->node[4]] 	38052420
scalar abilene_nodelay_network.node[3].core_layer 	slots_sent[face$o[4]->node[7]] 	26777131
scalar abilene_nodelay_network.node[3].content_store 	p_hit[3] 	0.28555656481003
scalar abilene_nodelay_network.node[3].content_store 	hits[3] 	170706
scalar abilene_nodelay_network.node[3].content_store 	misses[3] 	427095
scalar abilene_nodelay_network.node[3].content_store 	decision_yes[3] 	337711
scalar abilene_nodelay_network.node[3].content_store 	decision_no[3] 	89384
scalar abilene_nodelay_network.node[3].content_store 	decision_ratio[3] 	0.79071635116309
scalar abilene_nodelay_network.node[3].content_store 	"representation_breakdown[3] 0x7fffe620dc58:0x7fffe620dc58:0x7fffe620dc58:0x7fffe620dc58:0x7fffe620dc58:" 	0
scalar abilene_nodelay_network.node[3].proactive_component 	hdistance[3].proactive_component 	2.0797126845199
scalar abilene_nodelay_network.node[3].proactive_component 	downloads[3].proactive_component 	1543669
scalar abilene_nodelay_network.node[3].proactive_component 	avg_time[3].proactive_component 	0
scalar abilene_nodelay_network.node[4].core_layer 	interests[4] 	375227
scalar abilene_nodelay_network.node[4].core_layer 	repo_load[4] 	89634
scalar abilene_nodelay_network.node[4].core_layer 	data[4] 	153623
scalar abilene_nodelay_network.node[4].core_layer 	slots_sent[face$o[1]->client[4]] 	120671797
scalar abilene_nodelay_network.node[4].core_layer 	slots_sent[face$o[2]->node[3]] 	36408987
scalar abilene_nodelay_network.node[4].core_layer 	slots_sent[face$o[3]->node[5]] 	20657020
scalar abilene_nodelay_network.node[4].content_store 	p_hit[4] 	0.35170709996882
scalar abilene_nodelay_network.node[4].content_store 	hits[4] 	131970
scalar abilene_nodelay_network.node[4].content_store 	misses[4] 	243257
scalar abilene_nodelay_network.node[4].content_store 	decision_yes[4] 	153623
scalar abilene_nodelay_network.node[4].content_store 	decision_no[4] 	89634
scalar abilene_nodelay_network.node[4].content_store 	decision_ratio[4] 	0.63152550594639
scalar abilene_nodelay_network.node[4].content_store 	"representation_breakdown[4] 0x7fffe620dc58:0x7fffe620dc58:0x7fffe620dc58:0x7fffe620dc58:0x7fffe620dc58:" 	0
scalar abilene_nodelay_network.node[4].proactive_component 	hdistance[4].proactive_component 	2.3361947680432
scalar abilene_nodelay_network.node[4].proactive_component 	downloads[4].proactive_component 	874969
scalar abilene_nodelay_network.node[4].proactive_component 	avg_time[4].proactive_component 	0
scalar abilene_nodelay_network.node[5].core_layer 	interests[5] 	299851
scalar abilene_nodelay_network.node[5].core_layer 	repo_load[5] 	85290
scalar abilene_nodelay_network.node[5].core_layer 	data[5] 	95462
scalar abilene_nodelay_network.node[5].core_layer 	slots_sent[face$o[1]->client[5]] 	122705185
scalar abilene_nodelay_network.node[5].core_layer 	slots_sent[face$o[2]->node[4]] 	18765146
scalar abilene_nodelay_network.node[5].core_layer 	slots_sent[face$o[3]->node[6]] 	13421591
scalar abilene_nodelay_network.node[5].content_store 	p_hit[5] 	0.3971939396567
scalar abilene_nodelay_network.node[5].content_store 	hits[5] 	119099
scalar abilene_nodelay_network.node[5].content_store 	misses[5] 	180752
scalar abilene_nodelay_network.node[5].content_store 	decision_yes[5] 	95462
scalar abilene_nodelay_network.node[5].content_store 	decision_no[5] 	85290
scalar abilene_nodelay_network.node[5].content_store 	decision_ratio[5] 	0.52813800123927
scalar abilene_nodelay_network.node[5].content_store 	"representation_breakdown[5] 0x7fffe620dc58:0x7fffe620dc58:0x7fffe620dc58:0x7fffe620dc58:0x7fffe620dc58:" 	0
scalar abilene_nodelay_network.node[5].proactive_component 	hdistance[5].proactive_component 	2.3594466005528
scalar abilene_nodelay_network.node[5].proactive_component 	downloads[5].proactive_component 	650091
scalar abilene_nodelay_network.node[5].proactive_component 	avg_time[5].proactive_component 	0
scalar abilene_nodelay_network.node[6].core_layer 	interests[6] 	335156
scalar abilene_nodelay_network.node[6].core_layer 	repo_load[6] 	86189
scalar abilene_nodelay_network.node[6].core_layer 	data[6] 	124606
scalar abilene_nodelay_network.node[6].core_layer 	slots_sent[face$o[1]->client[6]] 	119616776
scalar abilene_nodelay_network.node[6].core_layer 	slots_sent[face$o[2]->node[5]] 	14079702
scalar abilene_nodelay_network.node[6].core_layer 	slots_sent[face$o[3]->node[7]] 	29142198
scalar abilene_nodelay_network.node[6].content_store 	p_hit[6] 	0.37105407631073
scalar abilene_nodelay_network.node[6].content_store 	hits[6] 	124361
scalar abilene_nodelay_network.node[6].content_store 	misses[6] 	210795
scalar abilene_nodelay_network.node[6].content_store 	decision_yes[6] 	124606
scalar abilene_nodelay_network.node[6].content_store 	decision_no[6] 	86189
scalar abilene_nodelay_network.node[6].content_store 	decision_ratio[6] 	0.59112407789559
scalar abilene_nodelay_network.node[6].content_store 	"representation_breakdown[6] 0x7fffe620dc58:0x7fffe620dc58:0x7fffe620dc58:0x7fffe620dc58:0x7fffe620dc58:" 	0
scalar abilene_nodelay_network.node[6].proactive_component 	hdistance[6].proactive_component 	2.263107457646
scalar abilene_nodelay_network.node[6].proactive_component 	downloads[6].proactive_component 	776371
scalar abilene_nodelay_network.node[6].proactive_component 	avg_time[6].proactive_component 	0
scalar abilene_nodelay_network.node[7].core_layer 	interests[7] 	453520
scalar abilene_nodelay_network.node[7].core_layer 	repo_load[7] 	91973
scalar abilene_nodelay_network.node[7].core_layer 	data[7] 	214510
scalar abilene_nodelay_network.node[7].core_layer 	slots_sent[face$o[1]->client[7]] 	117506825
scalar abilene_nodelay_network.node[7].core_layer 	slots_sent[face$o[2]->node[3]] 	25133373
scalar abilene_nodelay_network.node[7].core_layer 	slots_sent[face$o[3]->node[6]] 	31517666
scalar abilene_nodelay_network.node[7].core_layer 	slots_sent[face$o[4]->node[8]] 	22561427
scalar abilene_nodelay_network.node[7].content_store 	p_hit[7] 	0.32421282413124
scalar abilene_nodelay_network.node[7].content_store 	hits[7] 	147037
scalar abilene_nodelay_network.node[7].content_store 	misses[7] 	306483
scalar abilene_nodelay_network.node[7].content_store 	decision_yes[7] 	214510
scalar abilene_nodelay_network.node[7].content_store 	decision_no[7] 	91973
scalar abilene_nodelay_network.node[7].content_store 	decision_ratio[7] 	0.69990831465367
scalar abilene_nodelay_network.node[7].content_store 	"representation_breakdown[7] 0x7fffe620dc58:0x7fffe620dc58:0x7fffe620dc58:0x7fffe620dc58:0x7fffe620dc58:" 	0
scalar abilene_nodelay_network.node[7].proactive_component 	hdistance[7].proactive_component 	2.063469500092
scalar abilene_nodelay_network.node[7].proactive_component 	downloads[7].proactive_component 	1157233
scalar abilene_nodelay_network.node[7].proactive_component 	avg_time[7].proactive_component 	0
scalar abilene_nodelay_network.node[8].core_layer 	interests[8] 	439349
scalar abilene_nodelay_network.node[8].core_layer 	repo_load[8] 	96722
scalar abilene_nodelay_network.node[8].core_layer 	data[8] 	200540
scalar abilene_nodelay_network.node[8].core_layer 	slots_sent[face$o[1]->client[8]] 	115554007
scalar abilene_nodelay_network.node[8].core_layer 	slots_sent[face$o[2]->node[2]] 	23128671
scalar abilene_nodelay_network.node[8].core_layer 	slots_sent[face$o[3]->node[7]] 	22859842
scalar abilene_nodelay_network.node[8].core_layer 	slots_sent[face$o[4]->node[9]] 	29201468
scalar abilene_nodelay_network.node[8].content_store 	p_hit[8] 	0.32340349016386
scalar abilene_nodelay_network.node[8].content_store 	hits[8] 	142087
scalar abilene_nodelay_network.node[8].content_store 	misses[8] 	297262
scalar abilene_nodelay_network.node[8].content_store 	decision_yes[8] 	200540
scalar abilene_nodelay_network.node[8].content_store 	decision_no[8] 	96722
scalar abilene_nodelay_network.node[8].content_store 	decision_ratio[8] 	0.67462373259953
scalar abilene_nodelay_network.node[8].content_store 	"representation_breakdown[8] 0x7fffe620dc58:0x7fffe620dc58:0x7fffe620dc58:0x7fffe620dc58:0x7fffe620dc58:" 	0
scalar abilene_nodelay_network.node[8].proactive_component 	hdistance[8].proactive_component 	2.0404599432863
scalar abilene_nodelay_network.node[8].proactive_component 	downloads[8].proactive_component 	1109789
scalar abilene_nodelay_network.node[8].proactive_component 	avg_time[8].proactive_component 	0
scalar abilene_nodelay_network.node[9].core_layer 	interests[9] 	338033
scalar abilene_nodelay_network.node[9].core_layer 	repo_load[9] 	84255
scalar abilene_nodelay_network.node[9].core_layer 	data[9] 	126747
scalar abilene_nodelay_network.node[9].core_layer 	slots_sent[face$o[1]->client[9]] 	120253121
scalar abilene_nodelay_network.node[9].core_layer 	slots_sent[face$o[2]->node[10]] 	16735720
scalar abilene_nodelay_network.node[9].core_layer 	slots_sent[face$o[3]->node[8]] 	26787073
scalar abilene_nodelay_network.node[9].content_store 	p_hit[9] 	0.37579467093449
scalar abilene_nodelay_network.node[9].content_store 	hits[9] 	127031
scalar abilene_nodelay_network.node[9].content_store 	misses[9] 	211002
scalar abilene_nodelay_network.node[9].content_store 	decision_yes[9] 	126747
scalar abilene_nodelay_network.node[9].content_store 	decision_no[9] 	84255
scalar abilene_nodelay_network.node[9].content_store 	decision_ratio[9] 	0.60069098871101
scalar abilene_nodelay_network.node[9].content_store 	"representation_breakdown[9] 0x7fffe620dc58:0x7fffe620dc58:0x7fffe620dc58:0x7fffe620dc58:0x7fffe620dc58:" 	0
scalar abilene_nodelay_network.node[9].proactive_component 	hdistance[9].proactive_component 	2.1646805697639
scalar abilene_nodelay_network.node[9].proactive_component 	downloads[9].proactive_component 	795698
scalar abilene_nodelay_network.node[9].proactive_component 	avg_time[9].proactive_component 	0
scalar abilene_nodelay_network.node[10].core_layer 	interests[10] 	327098
scalar abilene_nodelay_network.node[10].core_layer 	repo_load[10] 	98350
scalar abilene_nodelay_network.node[10].core_layer 	data[10] 	111477
scalar abilene_nodelay_network.node[10].core_layer 	slots_sent[face$o[1]->client[10]] 	113017099
scalar abilene_nodelay_network.node[10].core_layer 	slots_sent[face$o[2]->node[0]] 	5697406
scalar abilene_nodelay_network.node[10].core_layer 	slots_sent[face$o[3]->node[1]] 	16793903
scalar abilene_nodelay_network.node[10].core_layer 	slots_sent[face$o[4]->node[9]] 	16758454
scalar abilene_nodelay_network.node[10].content_store 	p_hit[10] 	0.35851946511443
scalar abilene_nodelay_network.node[10].content_store 	hits[10] 	117271
scalar abilene_nodelay_network.node[10].content_store 	misses[10] 	209827
scalar abilene_nodelay_network.node[10].content_store 	decision_yes[10] 	111477
scalar abilene_nodelay_network.node[10].content_store 	decision_no[10] 	98350
scalar abilene_nodelay_network.node[10].content_store 	decision_ratio[10] 	0.5312805311042
scalar abilene_nodelay_network.node[10].content_store 	"representation_breakdown[10] 0x7fffe620dc58:0x7fffe620dc58:0x7fffe620dc58:0x7fffe620dc58:0x7fffe620dc58:" 	0
scalar abilene_nodelay_network.node[10].proactive_component 	hdistance[10].proactive_component 	2.2236269644228
scalar abilene_nodelay_network.node[10].proactive_component 	downloads[10].proactive_component 	764474
scalar abilene_nodelay_network.node[10].proactive_component 	avg_time[10].proactive_component 	0
scalar abilene_nodelay_network.client[0] 	hdistance[0].real 	1.0514933230826
scalar abilene_nodelay_network.client[0] 	downloads[0].real 	179499
scalar abilene_nodelay_network.client[0] 	avg_time[0].real 	0
scalar abilene_nodelay_network.client[1] 	hdistance[1].real 	1.0651667916562
scalar abilene_nodelay_network.client[1] 	downloads[1].real 	180015
scalar abilene_nodelay_network.client[1] 	avg_time[1].real 	0
scalar abilene_nodelay_network.client[2] 	hdistance[2].real 	0.89549697450375
scalar abilene_nodelay_network.client[2] 	downloads[2].real 	180301
scalar abilene_nodelay_network.client[2] 	avg_time[2].real 	0
scalar abilene_nodelay_network.client[3] 	hdistance[3].real 	0.90564551470874
scalar abilene_nodelay_network.client[3] 	downloads[3].real 	180267
scalar abilene_nodelay_network.client[3] 	avg_time[3].real 	0
scalar abilene_nodelay_network.client[4] 	hdistance[4].real 	0.9906730849495
scalar abilene_nodelay_network.client[4] 	downloads[4].real 	179695
scalar abilene_nodelay_network.client[4] 	avg_time[4].real 	0
scalar abilene_nodelay_network.client[5] 	hdistance[5].real 	1.028411340005
scalar abilene_nodelay_network.client[5] 	downloads[5].real 	179365
scalar abilene_nodelay_network.client[5] 	avg_time[5].real 	0
scalar abilene_nodelay_network.client[6] 	hdistance[6].real 	1.0022333829641
scalar abilene_nodelay_network.client[6] 	downloads[6].real 	179996
scalar abilene_nodelay_network.client[6] 	avg_time[6].real 	0
scalar abilene_nodelay_network.client[7] 	hdistance[7].real 	0.90176326612165
scalar abilene_nodelay_network.client[7] 	downloads[7].real 	180177
scalar abilene_nodelay_network.client[7] 	avg_time[7].real 	0
scalar abilene_nodelay_network.client[8] 	hdistance[8].real 	0.88145137977808
scalar abilene_nodelay_network.client[8] 	downloads[8].real 	179884
scalar abilene_nodelay_network.client[8] 	avg_time[8].real 	0
scalar abilene_nodelay_network.client[9] 	hdistance[9].real 	0.93564910802391
scalar abilene_nodelay_network.client[9] 	downloads[9].real 	180386
scalar abilene_nodelay_network.client[9] 	avg_time[9].real 	0
scalar abilene_nodelay_network.client[10] 	hdistance[10].real 	1.00394238651
scalar abilene_nodelay_network.client[10] 	downloads[10].real 	179333
scalar abilene_nodelay_network.client[10] 	avg_time[10].real 	0
