version 2
run General-7-20150723-15:18:46-25207
attr C 1e4
attr D lce
attr F spr
attr R partitioneds
attr a 1
attr brates 0.3_0.7_1.5_2.5_3.5
attr configname General
attr ctlg 1e6
attr datetime 20150723-15:18:46
attr experiment General
attr inifile omnetpp.ini
attr iterationvars "$net=abilene_nodelay, $rep=3, $lambda=100, $a=1, $ctlg=1e6, $brates=0.3_0.7_1.5_2.5_3.5, $F=spr, $ttl=1000, $D=lce, $R=partitioneds, $C=1e4, $window=60, $variance=0.05, $mytime=1800"
attr iterationvars2 "$net=abilene_nodelay, $rep=3, $lambda=100, $a=1, $ctlg=1e6, $brates=0.3_0.7_1.5_2.5_3.5, $F=spr, $ttl=1000, $D=lce, $R=partitioneds, $C=1e4, $window=60, $variance=0.05, $mytime=1800, $repetition=0"
attr lambda 100
attr measurement "$net=abilene_nodelay, $rep=3, $lambda=100, $a=1, $ctlg=1e6, $brates=0.3_0.7_1.5_2.5_3.5, $F=spr, $ttl=1000, $D=lce, $R=partitioneds, $C=1e4, $window=60, $variance=0.05, $mytime=1800"
attr mytime 1800
attr net abilene_nodelay
attr network networks.${net=abilene_nodelay}_network
attr processid 25207
attr rep 3
attr repetition 0
attr replication #0
attr resultdir results
attr runnumber 7
attr seedset 3
attr ttl 1000
attr variance 0.05
attr window 60

scalar . 	C 	1e4
scalar . 	a 	1
scalar . 	ctlg 	1e6
scalar . 	lambda 	100
scalar . 	mytime 	1800
scalar . 	rep 	3
scalar . 	ttl 	1000
scalar . 	variance 	0.05
scalar . 	window 	60
scalar abilene_nodelay_network.content_distribution 	repo-0 	9
scalar abilene_nodelay_network.content_distribution 	repo-1 	4
scalar abilene_nodelay_network.content_distribution 	repo-2 	0
scalar abilene_nodelay_network.content_distribution 	repo-3 	1
scalar abilene_nodelay_network.content_distribution 	repo-4 	10
scalar abilene_nodelay_network.content_distribution 	repo-5 	8
scalar abilene_nodelay_network.content_distribution 	repo-6 	6
scalar abilene_nodelay_network.content_distribution 	repo-7 	3
scalar abilene_nodelay_network.content_distribution 	repo-8 	5
scalar abilene_nodelay_network.content_distribution 	repo-9 	2
scalar abilene_nodelay_network.content_distribution 	repo-10 	7
scalar abilene_nodelay_network.content_distribution 	client-0 	8
scalar abilene_nodelay_network.content_distribution 	client-1 	10
scalar abilene_nodelay_network.content_distribution 	client-2 	9
scalar abilene_nodelay_network.content_distribution 	client-3 	2
scalar abilene_nodelay_network.content_distribution 	client-4 	0
scalar abilene_nodelay_network.content_distribution 	client-5 	6
scalar abilene_nodelay_network.content_distribution 	client-6 	7
scalar abilene_nodelay_network.content_distribution 	client-7 	1
scalar abilene_nodelay_network.content_distribution 	client-8 	4
scalar abilene_nodelay_network.content_distribution 	client-9 	5
scalar abilene_nodelay_network.content_distribution 	client-10 	3
scalar abilene_nodelay_network.content_distribution 	repo-0_card 	90872
scalar abilene_nodelay_network.content_distribution 	repo-0_price 	0
scalar abilene_nodelay_network.content_distribution 	repo-1_card 	90744
scalar abilene_nodelay_network.content_distribution 	repo-1_price 	0
scalar abilene_nodelay_network.content_distribution 	repo-2_card 	90692
scalar abilene_nodelay_network.content_distribution 	repo-2_price 	0
scalar abilene_nodelay_network.content_distribution 	repo-3_card 	90815
scalar abilene_nodelay_network.content_distribution 	repo-3_price 	0
scalar abilene_nodelay_network.content_distribution 	repo-4_card 	90784
scalar abilene_nodelay_network.content_distribution 	repo-4_price 	0
scalar abilene_nodelay_network.content_distribution 	repo-5_card 	91461
scalar abilene_nodelay_network.content_distribution 	repo-5_price 	0
scalar abilene_nodelay_network.content_distribution 	repo-6_card 	90999
scalar abilene_nodelay_network.content_distribution 	repo-6_price 	0
scalar abilene_nodelay_network.content_distribution 	repo-7_card 	90956
scalar abilene_nodelay_network.content_distribution 	repo-7_price 	0
scalar abilene_nodelay_network.content_distribution 	repo-8_card 	91035
scalar abilene_nodelay_network.content_distribution 	repo-8_price 	0
scalar abilene_nodelay_network.content_distribution 	repo-9_card 	90758
scalar abilene_nodelay_network.content_distribution 	repo-9_price 	0
scalar abilene_nodelay_network.content_distribution 	repo-10_card 	90884
scalar abilene_nodelay_network.content_distribution 	repo-10_price 	0
scalar abilene_nodelay_network.statistics 	stabilization_time 	36060
scalar abilene_nodelay_network.statistics 	p_hit 	0.32756030546423
scalar abilene_nodelay_network.statistics 	interests 	413915.45454545
scalar abilene_nodelay_network.statistics 	data 	186183.81818182
scalar abilene_nodelay_network.statistics 	hdistance 	0.96583639235787
scalar abilene_nodelay_network.statistics 	avg_time 	0
scalar abilene_nodelay_network.statistics 	downloads 	1978225
scalar abilene_nodelay_network.statistics 	total_cost 	0
scalar abilene_nodelay_network.statistics 	total_replicas 	1000000
scalar abilene_nodelay_network.statistics 	"representations_downloaded 0.395701:0.0597713:0.0453068:0.0403109:0.45891:" 	0
scalar abilene_nodelay_network.statistics 	"slots_per_representation 100:233:500:833:1167:" 	0
scalar abilene_nodelay_network.statistics 	inner_hit 	0.48759974219313
scalar abilene_nodelay_network.statistics 	execution_time 	2104
scalar abilene_nodelay_network.node[0].core_layer 	interests[0] 	280062
scalar abilene_nodelay_network.node[0].core_layer 	repo_load[0] 	92015
scalar abilene_nodelay_network.node[0].core_layer 	data[0] 	79400
scalar abilene_nodelay_network.node[0].core_layer 	slots_sent[face$o[1]->client[0]] 	118305782
scalar abilene_nodelay_network.node[0].core_layer 	slots_sent[face$o[2]->node[1]] 	21301889
scalar abilene_nodelay_network.node[0].core_layer 	slots_sent[face$o[3]->node[10]] 	5628883
scalar abilene_nodelay_network.node[0].content_store 	p_hit[0] 	0.38793909919946
scalar abilene_nodelay_network.node[0].content_store 	hits[0] 	108647
scalar abilene_nodelay_network.node[0].content_store 	misses[0] 	171415
scalar abilene_nodelay_network.node[0].content_store 	decision_yes[0] 	79400
scalar abilene_nodelay_network.node[0].content_store 	decision_no[0] 	92015
scalar abilene_nodelay_network.node[0].content_store 	decision_ratio[0] 	0.46320333693084
scalar abilene_nodelay_network.node[0].content_store 	"representation_breakdown[0] 0x7ffc9f9a38d8:0x7ffc9f9a38d8:0x7ffc9f9a38d8:0x7ffc9f9a38d8:0x7ffc9f9a38d8:" 	0
scalar abilene_nodelay_network.node[0].proactive_component 	hdistance[0].proactive_component 	2.6445619155126
scalar abilene_nodelay_network.node[0].proactive_component 	downloads[0].proactive_component 	544815
scalar abilene_nodelay_network.node[0].proactive_component 	avg_time[0].proactive_component 	0
scalar abilene_nodelay_network.node[1].core_layer 	interests[1] 	483211
scalar abilene_nodelay_network.node[1].core_layer 	repo_load[1] 	94161
scalar abilene_nodelay_network.node[1].core_layer 	data[1] 	243628
scalar abilene_nodelay_network.node[1].core_layer 	slots_sent[face$o[1]->client[1]] 	113703176
scalar abilene_nodelay_network.node[1].core_layer 	slots_sent[face$o[2]->node[0]] 	23535257
scalar abilene_nodelay_network.node[1].core_layer 	slots_sent[face$o[3]->node[10]] 	17925168
scalar abilene_nodelay_network.node[1].core_layer 	slots_sent[face$o[4]->node[2]] 	49243183
scalar abilene_nodelay_network.node[1].content_store 	p_hit[1] 	0.30094927474747
scalar abilene_nodelay_network.node[1].content_store 	hits[1] 	145422
scalar abilene_nodelay_network.node[1].content_store 	misses[1] 	337789
scalar abilene_nodelay_network.node[1].content_store 	decision_yes[1] 	243628
scalar abilene_nodelay_network.node[1].content_store 	decision_no[1] 	94161
scalar abilene_nodelay_network.node[1].content_store 	decision_ratio[1] 	0.72124314290874
scalar abilene_nodelay_network.node[1].content_store 	"representation_breakdown[1] 0x7ffc9f9a38d8:0x7ffc9f9a38d8:0x7ffc9f9a38d8:0x7ffc9f9a38d8:0x7ffc9f9a38d8:" 	0
scalar abilene_nodelay_network.node[1].proactive_component 	hdistance[1].proactive_component 	2.2098400083304
scalar abilene_nodelay_network.node[1].proactive_component 	downloads[1].proactive_component 	1190812
scalar abilene_nodelay_network.node[1].proactive_component 	avg_time[1].proactive_component 	0
scalar abilene_nodelay_network.node[2].core_layer 	interests[2] 	635149
scalar abilene_nodelay_network.node[2].core_layer 	repo_load[2] 	97593
scalar abilene_nodelay_network.node[2].core_layer 	data[2] 	365400
scalar abilene_nodelay_network.node[2].core_layer 	slots_sent[face$o[1]->client[2]] 	112586399
scalar abilene_nodelay_network.node[2].core_layer 	slots_sent[face$o[2]->node[1]] 	51709247
scalar abilene_nodelay_network.node[2].core_layer 	slots_sent[face$o[3]->node[3]] 	63405866
scalar abilene_nodelay_network.node[2].core_layer 	slots_sent[face$o[4]->node[8]] 	24922161
scalar abilene_nodelay_network.node[2].content_store 	p_hit[2] 	0.2710482107348
scalar abilene_nodelay_network.node[2].content_store 	hits[2] 	172156
scalar abilene_nodelay_network.node[2].content_store 	misses[2] 	462993
scalar abilene_nodelay_network.node[2].content_store 	decision_yes[2] 	365400
scalar abilene_nodelay_network.node[2].content_store 	decision_no[2] 	97593
scalar abilene_nodelay_network.node[2].content_store 	decision_ratio[2] 	0.7892127958738
scalar abilene_nodelay_network.node[2].content_store 	"representation_breakdown[2] 0x7ffc9f9a38d8:0x7ffc9f9a38d8:0x7ffc9f9a38d8:0x7ffc9f9a38d8:0x7ffc9f9a38d8:" 	0
scalar abilene_nodelay_network.node[2].proactive_component 	hdistance[2].proactive_component 	2.0640867455574
scalar abilene_nodelay_network.node[2].proactive_component 	downloads[2].proactive_component 	1610411
scalar abilene_nodelay_network.node[2].proactive_component 	avg_time[2].proactive_component 	0
scalar abilene_nodelay_network.node[3].core_layer 	interests[3] 	598949
scalar abilene_nodelay_network.node[3].core_layer 	repo_load[3] 	92191
scalar abilene_nodelay_network.node[3].core_layer 	data[3] 	336004
scalar abilene_nodelay_network.node[3].core_layer 	slots_sent[face$o[1]->client[3]] 	116565916
scalar abilene_nodelay_network.node[3].core_layer 	slots_sent[face$o[2]->node[2]] 	61137101
scalar abilene_nodelay_network.node[3].core_layer 	slots_sent[face$o[3]->node[4]] 	38669675
scalar abilene_nodelay_network.node[3].core_layer 	slots_sent[face$o[4]->node[7]] 	27931011
scalar abilene_nodelay_network.node[3].content_store 	p_hit[3] 	0.28508938156671
scalar abilene_nodelay_network.node[3].content_store 	hits[3] 	170754
scalar abilene_nodelay_network.node[3].content_store 	misses[3] 	428195
scalar abilene_nodelay_network.node[3].content_store 	decision_yes[3] 	336004
scalar abilene_nodelay_network.node[3].content_store 	decision_no[3] 	92191
scalar abilene_nodelay_network.node[3].content_store 	decision_ratio[3] 	0.78469856023541
scalar abilene_nodelay_network.node[3].content_store 	"representation_breakdown[3] 0x7ffc9f9a38d8:0x7ffc9f9a38d8:0x7ffc9f9a38d8:0x7ffc9f9a38d8:0x7ffc9f9a38d8:" 	0
scalar abilene_nodelay_network.node[3].proactive_component 	hdistance[3].proactive_component 	2.0848742329746
scalar abilene_nodelay_network.node[3].proactive_component 	downloads[3].proactive_component 	1533033
scalar abilene_nodelay_network.node[3].proactive_component 	avg_time[3].proactive_component 	0
scalar abilene_nodelay_network.node[4].core_layer 	interests[4] 	372071
scalar abilene_nodelay_network.node[4].core_layer 	repo_load[4] 	90787
scalar abilene_nodelay_network.node[4].core_layer 	data[4] 	153073
scalar abilene_nodelay_network.node[4].core_layer 	slots_sent[face$o[1]->client[4]] 	116888850
scalar abilene_nodelay_network.node[4].core_layer 	slots_sent[face$o[2]->node[3]] 	34637620
scalar abilene_nodelay_network.node[4].core_layer 	slots_sent[face$o[3]->node[5]] 	20675270
scalar abilene_nodelay_network.node[4].content_store 	p_hit[4] 	0.34458745777016
scalar abilene_nodelay_network.node[4].content_store 	hits[4] 	128211
scalar abilene_nodelay_network.node[4].content_store 	misses[4] 	243860
scalar abilene_nodelay_network.node[4].content_store 	decision_yes[4] 	153073
scalar abilene_nodelay_network.node[4].content_store 	decision_no[4] 	90787
scalar abilene_nodelay_network.node[4].content_store 	decision_ratio[4] 	0.6277085212827
scalar abilene_nodelay_network.node[4].content_store 	"representation_breakdown[4] 0x7ffc9f9a38d8:0x7ffc9f9a38d8:0x7ffc9f9a38d8:0x7ffc9f9a38d8:0x7ffc9f9a38d8:" 	0
scalar abilene_nodelay_network.node[4].proactive_component 	hdistance[4].proactive_component 	2.3346014360694
scalar abilene_nodelay_network.node[4].proactive_component 	downloads[4].proactive_component 	877952
scalar abilene_nodelay_network.node[4].proactive_component 	avg_time[4].proactive_component 	0
scalar abilene_nodelay_network.node[5].core_layer 	interests[5] 	296817
scalar abilene_nodelay_network.node[5].core_layer 	repo_load[5] 	80926
scalar abilene_nodelay_network.node[5].core_layer 	data[5] 	95266
scalar abilene_nodelay_network.node[5].core_layer 	slots_sent[face$o[1]->client[5]] 	125339500
scalar abilene_nodelay_network.node[5].core_layer 	slots_sent[face$o[2]->node[4]] 	17746413
scalar abilene_nodelay_network.node[5].core_layer 	slots_sent[face$o[3]->node[6]] 	12829873
scalar abilene_nodelay_network.node[5].content_store 	p_hit[5] 	0.40639518625955
scalar abilene_nodelay_network.node[5].content_store 	hits[5] 	120625
scalar abilene_nodelay_network.node[5].content_store 	misses[5] 	176192
scalar abilene_nodelay_network.node[5].content_store 	decision_yes[5] 	95266
scalar abilene_nodelay_network.node[5].content_store 	decision_no[5] 	80926
scalar abilene_nodelay_network.node[5].content_store 	decision_ratio[5] 	0.54069424264439
scalar abilene_nodelay_network.node[5].content_store 	"representation_breakdown[5] 0x7ffc9f9a38d8:0x7ffc9f9a38d8:0x7ffc9f9a38d8:0x7ffc9f9a38d8:0x7ffc9f9a38d8:" 	0
scalar abilene_nodelay_network.node[5].proactive_component 	hdistance[5].proactive_component 	2.3632612185069
scalar abilene_nodelay_network.node[5].proactive_component 	downloads[5].proactive_component 	646053
scalar abilene_nodelay_network.node[5].proactive_component 	avg_time[5].proactive_component 	0
scalar abilene_nodelay_network.node[6].core_layer 	interests[6] 	333197
scalar abilene_nodelay_network.node[6].core_layer 	repo_load[6] 	82727
scalar abilene_nodelay_network.node[6].core_layer 	data[6] 	123994
scalar abilene_nodelay_network.node[6].core_layer 	slots_sent[face$o[1]->client[6]] 	122197517
scalar abilene_nodelay_network.node[6].core_layer 	slots_sent[face$o[2]->node[5]] 	14075266
scalar abilene_nodelay_network.node[6].core_layer 	slots_sent[face$o[3]->node[7]] 	28463843
scalar abilene_nodelay_network.node[6].content_store 	p_hit[6] 	0.37958324954907
scalar abilene_nodelay_network.node[6].content_store 	hits[6] 	126476
scalar abilene_nodelay_network.node[6].content_store 	misses[6] 	206721
scalar abilene_nodelay_network.node[6].content_store 	decision_yes[6] 	123994
scalar abilene_nodelay_network.node[6].content_store 	decision_no[6] 	82727
scalar abilene_nodelay_network.node[6].content_store 	decision_ratio[6] 	0.59981327489708
scalar abilene_nodelay_network.node[6].content_store 	"representation_breakdown[6] 0x7ffc9f9a38d8:0x7ffc9f9a38d8:0x7ffc9f9a38d8:0x7ffc9f9a38d8:0x7ffc9f9a38d8:" 	0
scalar abilene_nodelay_network.node[6].proactive_component 	hdistance[6].proactive_component 	2.2721351835852
scalar abilene_nodelay_network.node[6].proactive_component 	downloads[6].proactive_component 	770922
scalar abilene_nodelay_network.node[6].proactive_component 	avg_time[6].proactive_component 	0
scalar abilene_nodelay_network.node[7].core_layer 	interests[7] 	452762
scalar abilene_nodelay_network.node[7].core_layer 	repo_load[7] 	92935
scalar abilene_nodelay_network.node[7].core_layer 	data[7] 	213790
scalar abilene_nodelay_network.node[7].core_layer 	slots_sent[face$o[1]->client[7]] 	116666533
scalar abilene_nodelay_network.node[7].core_layer 	slots_sent[face$o[2]->node[3]] 	24911652
scalar abilene_nodelay_network.node[7].core_layer 	slots_sent[face$o[3]->node[6]] 	32289700
scalar abilene_nodelay_network.node[7].core_layer 	slots_sent[face$o[4]->node[8]] 	22433932
scalar abilene_nodelay_network.node[7].content_store 	p_hit[7] 	0.32254694519416
scalar abilene_nodelay_network.node[7].content_store 	hits[7] 	146037
scalar abilene_nodelay_network.node[7].content_store 	misses[7] 	306725
scalar abilene_nodelay_network.node[7].content_store 	decision_yes[7] 	213790
scalar abilene_nodelay_network.node[7].content_store 	decision_no[7] 	92935
scalar abilene_nodelay_network.node[7].content_store 	decision_ratio[7] 	0.69700872116717
scalar abilene_nodelay_network.node[7].content_store 	"representation_breakdown[7] 0x7ffc9f9a38d8:0x7ffc9f9a38d8:0x7ffc9f9a38d8:0x7ffc9f9a38d8:0x7ffc9f9a38d8:" 	0
scalar abilene_nodelay_network.node[7].proactive_component 	hdistance[7].proactive_component 	2.0649032531839
scalar abilene_nodelay_network.node[7].proactive_component 	downloads[7].proactive_component 	1159418
scalar abilene_nodelay_network.node[7].proactive_component 	avg_time[7].proactive_component 	0
scalar abilene_nodelay_network.node[8].core_layer 	interests[8] 	437677
scalar abilene_nodelay_network.node[8].core_layer 	repo_load[8] 	93453
scalar abilene_nodelay_network.node[8].core_layer 	data[8] 	200562
scalar abilene_nodelay_network.node[8].core_layer 	slots_sent[face$o[1]->client[8]] 	116448691
scalar abilene_nodelay_network.node[8].core_layer 	slots_sent[face$o[2]->node[2]] 	22967653
scalar abilene_nodelay_network.node[8].core_layer 	slots_sent[face$o[3]->node[7]] 	22526874
scalar abilene_nodelay_network.node[8].core_layer 	slots_sent[face$o[4]->node[9]] 	28740814
scalar abilene_nodelay_network.node[8].content_store 	p_hit[8] 	0.32823749020396
scalar abilene_nodelay_network.node[8].content_store 	hits[8] 	143662
scalar abilene_nodelay_network.node[8].content_store 	misses[8] 	294015
scalar abilene_nodelay_network.node[8].content_store 	decision_yes[8] 	200562
scalar abilene_nodelay_network.node[8].content_store 	decision_no[8] 	93453
scalar abilene_nodelay_network.node[8].content_store 	decision_ratio[8] 	0.68214886995561
scalar abilene_nodelay_network.node[8].content_store 	"representation_breakdown[8] 0x7ffc9f9a38d8:0x7ffc9f9a38d8:0x7ffc9f9a38d8:0x7ffc9f9a38d8:0x7ffc9f9a38d8:" 	0
scalar abilene_nodelay_network.node[8].proactive_component 	hdistance[8].proactive_component 	2.0380244545672
scalar abilene_nodelay_network.node[8].proactive_component 	downloads[8].proactive_component 	1126170
scalar abilene_nodelay_network.node[8].proactive_component 	avg_time[8].proactive_component 	0
scalar abilene_nodelay_network.node[9].core_layer 	interests[9] 	337253
scalar abilene_nodelay_network.node[9].core_layer 	repo_load[9] 	104699
scalar abilene_nodelay_network.node[9].core_layer 	data[9] 	124802
scalar abilene_nodelay_network.node[9].core_layer 	slots_sent[face$o[1]->client[9]] 	100914019
scalar abilene_nodelay_network.node[9].core_layer 	slots_sent[face$o[2]->node[10]] 	17180489
scalar abilene_nodelay_network.node[9].core_layer 	slots_sent[face$o[3]->node[8]] 	26818703
scalar abilene_nodelay_network.node[9].content_store 	p_hit[9] 	0.31949901112814
scalar abilene_nodelay_network.node[9].content_store 	hits[9] 	107752
scalar abilene_nodelay_network.node[9].content_store 	misses[9] 	229501
scalar abilene_nodelay_network.node[9].content_store 	decision_yes[9] 	124802
scalar abilene_nodelay_network.node[9].content_store 	decision_no[9] 	104699
scalar abilene_nodelay_network.node[9].content_store 	decision_ratio[9] 	0.54379719478346
scalar abilene_nodelay_network.node[9].content_store 	"representation_breakdown[9] 0x7ffc9f9a38d8:0x7ffc9f9a38d8:0x7ffc9f9a38d8:0x7ffc9f9a38d8:0x7ffc9f9a38d8:" 	0
scalar abilene_nodelay_network.node[9].proactive_component 	hdistance[9].proactive_component 	2.1638662979416
scalar abilene_nodelay_network.node[9].proactive_component 	downloads[9].proactive_component 	782516
scalar abilene_nodelay_network.node[9].proactive_component 	avg_time[9].proactive_component 	0
scalar abilene_nodelay_network.node[10].core_layer 	interests[10] 	325922
scalar abilene_nodelay_network.node[10].core_layer 	repo_load[10] 	92156
scalar abilene_nodelay_network.node[10].core_layer 	data[10] 	112103
scalar abilene_nodelay_network.node[10].core_layer 	slots_sent[face$o[1]->client[10]] 	116887798
scalar abilene_nodelay_network.node[10].core_layer 	slots_sent[face$o[2]->node[0]] 	5665902
scalar abilene_nodelay_network.node[10].core_layer 	slots_sent[face$o[3]->node[1]] 	16316052
scalar abilene_nodelay_network.node[10].core_layer 	slots_sent[face$o[4]->node[9]] 	16070186
scalar abilene_nodelay_network.node[10].content_store 	p_hit[10] 	0.37328870097753
scalar abilene_nodelay_network.node[10].content_store 	hits[10] 	121663
scalar abilene_nodelay_network.node[10].content_store 	misses[10] 	204259
scalar abilene_nodelay_network.node[10].content_store 	decision_yes[10] 	112103
scalar abilene_nodelay_network.node[10].content_store 	decision_no[10] 	92156
scalar abilene_nodelay_network.node[10].content_store 	decision_ratio[10] 	0.54882771383391
scalar abilene_nodelay_network.node[10].content_store 	"representation_breakdown[10] 0x7ffc9f9a38d8:0x7ffc9f9a38d8:0x7ffc9f9a38d8:0x7ffc9f9a38d8:0x7ffc9f9a38d8:" 	0
scalar abilene_nodelay_network.node[10].proactive_component 	hdistance[10].proactive_component 	2.2135458352182
scalar abilene_nodelay_network.node[10].proactive_component 	downloads[10].proactive_component 	775899
scalar abilene_nodelay_network.node[10].proactive_component 	avg_time[10].proactive_component 	0
scalar abilene_nodelay_network.client[0] 	hdistance[0].real 	1.0432936094892
scalar abilene_nodelay_network.client[0] 	downloads[0].real 	179657
scalar abilene_nodelay_network.client[0] 	avg_time[0].real 	0
scalar abilene_nodelay_network.client[1] 	hdistance[1].real 	0.97810555299578
scalar abilene_nodelay_network.client[1] 	downloads[1].real 	180137
scalar abilene_nodelay_network.client[1] 	avg_time[1].real 	0
scalar abilene_nodelay_network.client[2] 	hdistance[2].real 	0.90057732874431
scalar abilene_nodelay_network.client[2] 	downloads[2].real 	180140
scalar abilene_nodelay_network.client[2] 	avg_time[2].real 	0
scalar abilene_nodelay_network.client[3] 	hdistance[3].real 	0.90195589124202
scalar abilene_nodelay_network.client[3] 	downloads[3].real 	180327
scalar abilene_nodelay_network.client[3] 	avg_time[3].real 	0
scalar abilene_nodelay_network.client[4] 	hdistance[4].real 	1.0106030889924
scalar abilene_nodelay_network.client[4] 	downloads[4].real 	179476
scalar abilene_nodelay_network.client[4] 	avg_time[4].real 	0
scalar abilene_nodelay_network.client[5] 	hdistance[5].real 	1.0178007384999
scalar abilene_nodelay_network.client[5] 	downloads[5].real 	179824
scalar abilene_nodelay_network.client[5] 	avg_time[5].real 	0
scalar abilene_nodelay_network.client[6] 	hdistance[6].real 	0.98613128530484
scalar abilene_nodelay_network.client[6] 	downloads[6].real 	179685
scalar abilene_nodelay_network.client[6] 	avg_time[6].real 	0
scalar abilene_nodelay_network.client[7] 	hdistance[7].real 	0.90038352621134
scalar abilene_nodelay_network.client[7] 	downloads[7].real 	179388
scalar abilene_nodelay_network.client[7] 	avg_time[7].real 	0
scalar abilene_nodelay_network.client[8] 	hdistance[8].real 	0.87258781816866
scalar abilene_nodelay_network.client[8] 	downloads[8].real 	179661
scalar abilene_nodelay_network.client[8] 	avg_time[8].real 	0
scalar abilene_nodelay_network.client[9] 	hdistance[9].real 	1.0349724471279
scalar abilene_nodelay_network.client[9] 	downloads[9].real 	180199
scalar abilene_nodelay_network.client[9] 	avg_time[9].real 	0
scalar abilene_nodelay_network.client[10] 	hdistance[10].real 	0.97778902916025
scalar abilene_nodelay_network.client[10] 	downloads[10].real 	179731
scalar abilene_nodelay_network.client[10] 	avg_time[10].real 	0
