version 2
run General-7-20140627-14:59:19-14566
attr D costprobprodcorr0.01
attr F spr
attr R lru
attr a 1
attr configname General
attr csize 1e3
attr ctlg 1e5
attr datetime 20140627-14:59:19
attr experiment General
attr inifile omnetpp.ini
attr iterationvars "$net=abilene_cost, $rep=1, $priceratiovalue=10, $weights=0.333_0.333_0.334, $lambda=100, $a=1, $ctlg=1e5, $F=spr, $ttl=1000, $D=costprobprodcorr0.01, $xi=1, $R=lru, $csize=1e3, $pricebits=0, $window=600, $variance=0.005, $mytime=1800"
attr iterationvars2 "$net=abilene_cost, $rep=1, $priceratiovalue=10, $weights=0.333_0.333_0.334, $lambda=100, $a=1, $ctlg=1e5, $F=spr, $ttl=1000, $D=costprobprodcorr0.01, $xi=1, $R=lru, $csize=1e3, $pricebits=0, $window=600, $variance=0.005, $mytime=1800, $repetition=0"
attr lambda 100
attr measurement "$net=abilene_cost, $rep=1, $priceratiovalue=10, $weights=0.333_0.333_0.334, $lambda=100, $a=1, $ctlg=1e5, $F=spr, $ttl=1000, $D=costprobprodcorr0.01, $xi=1, $R=lru, $csize=1e3, $pricebits=0, $window=600, $variance=0.005, $mytime=1800"
attr mytime 1800
attr net abilene_cost
attr network "networks.${net=geant_cost, abilene_cost}_network"
attr pricebits 0
attr priceratiovalue 10
attr processid 14566
attr rep 1
attr repetition 0
attr replication #0
attr resultdir results
attr runnumber 7
attr seedset 1
attr ttl 1000
attr variance 0.005
attr weights 0.333_0.333_0.334
attr window 600
attr xi 1

scalar . 	a 	1
scalar . 	csize 	1e3
scalar . 	ctlg 	1e5
scalar . 	lambda 	100
scalar . 	mytime 	1800
scalar . 	pricebits 	0
scalar . 	priceratiovalue 	10
scalar . 	rep 	1
scalar . 	ttl 	1000
scalar . 	variance 	0.005
scalar . 	window 	600
scalar . 	xi 	1
scalar abilene_cost_network.content_distribution 	repo-0 	11
scalar abilene_cost_network.content_distribution 	repo-1 	12
scalar abilene_cost_network.content_distribution 	repo-2 	13
scalar abilene_cost_network.content_distribution 	client-0 	5
scalar abilene_cost_network.content_distribution 	client-1 	0
scalar abilene_cost_network.content_distribution 	client-2 	9
scalar abilene_cost_network.content_distribution 	repo-0_card 	33396
scalar abilene_cost_network.content_distribution 	repo-1_card 	33039
scalar abilene_cost_network.content_distribution 	repo-2_card 	33565
scalar abilene_cost_network.statistics 	repo_popularity[0] 	0.28686251265602
scalar abilene_cost_network.statistics 	repo_popularity[1] 	0.2886063426465
scalar abilene_cost_network.statistics 	repo_popularity[2] 	0.42453114469748
scalar abilene_cost_network.statistics 	stabilization_time 	3415.6
scalar abilene_cost_network.node[1].face$o[4].channel 	price[1] 	0
scalar abilene_cost_network.node[1].face$o[4].channel 	represented_price[1] 	0
scalar abilene_cost_network.node[7].face$o[4].channel 	price[7] 	0
scalar abilene_cost_network.node[7].face$o[4].channel 	represented_price[7] 	0
scalar abilene_cost_network.node[10].face$o[4].channel 	price[10] 	0
scalar abilene_cost_network.node[10].face$o[4].channel 	represented_price[10] 	0
scalar abilene_cost_network.node[11].face$o[1].channel 	price[11] 	0
scalar abilene_cost_network.node[11].face$o[1].channel 	represented_price[11] 	0
scalar abilene_cost_network.node[12].face$o[1].channel 	price[12] 	1
scalar abilene_cost_network.node[12].face$o[1].channel 	represented_price[12] 	1
scalar abilene_cost_network.node[13].face$o[1].channel 	price[13] 	10
scalar abilene_cost_network.node[13].face$o[1].channel 	represented_price[13] 	10
scalar abilene_cost_network.statistics 	p_hit 	0.10485052089313
scalar abilene_cost_network.statistics 	interests 	143092.14285714
scalar abilene_cost_network.statistics 	data 	104453.5
scalar abilene_cost_network.statistics 	hdistance 	3.3518830714375
scalar abilene_cost_network.statistics 	avg_time 	0.013683143424
scalar abilene_cost_network.statistics 	downloads 	533707
scalar abilene_cost_network.statistics 	total_cost 	940964
scalar abilene_cost_network.statistics 	total_replicas 	100000
scalar abilene_cost_network.statistics 	inner_hit 	0.39356425904101
scalar abilene_cost_network.statistics 	interests_sent 	540938
scalar abilene_cost_network.node[0].core_layer 	interests[0] 	180579
scalar abilene_cost_network.node[0].core_layer 	data[0] 	158736
scalar abilene_cost_network.node[0].core_layer 	repo_int[0] 	323659
scalar abilene_cost_network.node[0].content_store 	p_hit[0] 	0.11053887772111
scalar abilene_cost_network.node[0].content_store 	hits[0] 	19961
scalar abilene_cost_network.node[0].content_store 	misses[0] 	160618
scalar abilene_cost_network.node[0].content_store 	decision_yes[0] 	913
scalar abilene_cost_network.node[0].content_store 	decision_no[0] 	157823
scalar abilene_cost_network.node[0].content_store 	decision_ratio[0] 	0.0057516883378692
scalar abilene_cost_network.node[0].content_store 	correction_factor[0] 	0.0027225701061802
scalar abilene_cost_network.node[0].content_store 	xi[0] 	1
scalar abilene_cost_network.node[1].core_layer 	interests[1] 	257316
scalar abilene_cost_network.node[1].core_layer 	data[1] 	184698
scalar abilene_cost_network.node[1].content_store 	p_hit[1] 	0.28220553716053
scalar abilene_cost_network.node[1].content_store 	hits[1] 	72616
scalar abilene_cost_network.node[1].content_store 	misses[1] 	184700
scalar abilene_cost_network.node[1].content_store 	decision_yes[1] 	2483
scalar abilene_cost_network.node[1].content_store 	decision_no[1] 	182215
scalar abilene_cost_network.node[1].content_store 	decision_ratio[1] 	0.01344356733695
scalar abilene_cost_network.node[1].content_store 	correction_factor[1] 	0.0027225701061802
scalar abilene_cost_network.node[1].content_store 	xi[1] 	1
scalar abilene_cost_network.node[2].core_layer 	interests[2] 	156211
scalar abilene_cost_network.node[2].core_layer 	data[2] 	141884
scalar abilene_cost_network.node[2].content_store 	p_hit[2] 	0.091709290638943
scalar abilene_cost_network.node[2].content_store 	hits[2] 	14326
scalar abilene_cost_network.node[2].content_store 	misses[2] 	141885
scalar abilene_cost_network.node[2].content_store 	decision_yes[2] 	770
scalar abilene_cost_network.node[2].content_store 	decision_no[2] 	141114
scalar abilene_cost_network.node[2].content_store 	decision_ratio[2] 	0.0054269685094866
scalar abilene_cost_network.node[2].content_store 	correction_factor[2] 	0.0027225701061802
scalar abilene_cost_network.node[2].content_store 	xi[2] 	1
scalar abilene_cost_network.node[3].core_layer 	interests[3] 	157600
scalar abilene_cost_network.node[3].core_layer 	data[3] 	150598
scalar abilene_cost_network.node[3].content_store 	p_hit[3] 	0.044422588832487
scalar abilene_cost_network.node[3].content_store 	hits[3] 	7001
scalar abilene_cost_network.node[3].content_store 	misses[3] 	150599
scalar abilene_cost_network.node[3].content_store 	decision_yes[3] 	794
scalar abilene_cost_network.node[3].content_store 	decision_no[3] 	149804
scalar abilene_cost_network.node[3].content_store 	decision_ratio[3] 	0.0052723143733649
scalar abilene_cost_network.node[3].content_store 	correction_factor[3] 	0.0027225701061802
scalar abilene_cost_network.node[3].content_store 	xi[3] 	1
scalar abilene_cost_network.node[4].core_layer 	interests[4] 	121678
scalar abilene_cost_network.node[4].core_layer 	data[4] 	113885
scalar abilene_cost_network.node[4].content_store 	p_hit[4] 	0.064037870444945
scalar abilene_cost_network.node[4].content_store 	hits[4] 	7792
scalar abilene_cost_network.node[4].content_store 	misses[4] 	113886
scalar abilene_cost_network.node[4].content_store 	decision_yes[4] 	690
scalar abilene_cost_network.node[4].content_store 	decision_no[4] 	113195
scalar abilene_cost_network.node[4].content_store 	decision_ratio[4] 	0.0060587434692892
scalar abilene_cost_network.node[4].content_store 	correction_factor[4] 	0.0027225701061802
scalar abilene_cost_network.node[4].content_store 	xi[4] 	1
scalar abilene_cost_network.node[5].core_layer 	interests[5] 	179431
scalar abilene_cost_network.node[5].core_layer 	data[5] 	170246
scalar abilene_cost_network.node[5].content_store 	p_hit[5] 	0.033288562177104
scalar abilene_cost_network.node[5].content_store 	hits[5] 	5973
scalar abilene_cost_network.node[5].content_store 	misses[5] 	173458
scalar abilene_cost_network.node[5].content_store 	decision_yes[5] 	808
scalar abilene_cost_network.node[5].content_store 	decision_no[5] 	169438
scalar abilene_cost_network.node[5].content_store 	decision_ratio[5] 	0.0047460733291825
scalar abilene_cost_network.node[5].content_store 	correction_factor[5] 	0.0027225701061802
scalar abilene_cost_network.node[5].content_store 	xi[5] 	1
scalar abilene_cost_network.node[6].core_layer 	interests[6] 	48569
scalar abilene_cost_network.node[6].core_layer 	data[6] 	42275
scalar abilene_cost_network.node[6].content_store 	p_hit[6] 	0.1295888323828
scalar abilene_cost_network.node[6].content_store 	hits[6] 	6294
scalar abilene_cost_network.node[6].content_store 	misses[6] 	42275
scalar abilene_cost_network.node[6].content_store 	decision_yes[6] 	72
scalar abilene_cost_network.node[6].content_store 	decision_no[6] 	42203
scalar abilene_cost_network.node[6].content_store 	decision_ratio[6] 	0.0017031342400946
scalar abilene_cost_network.node[6].content_store 	correction_factor[6] 	0.0027225701061802
scalar abilene_cost_network.node[6].content_store 	xi[6] 	1
scalar abilene_cost_network.node[7].core_layer 	interests[7] 	127750
scalar abilene_cost_network.node[7].core_layer 	data[7] 	83334
scalar abilene_cost_network.node[7].content_store 	p_hit[7] 	0.34767906066536
scalar abilene_cost_network.node[7].content_store 	hits[7] 	44416
scalar abilene_cost_network.node[7].content_store 	misses[7] 	83334
scalar abilene_cost_network.node[7].content_store 	decision_yes[7] 	225
scalar abilene_cost_network.node[7].content_store 	decision_no[7] 	83109
scalar abilene_cost_network.node[7].content_store 	decision_ratio[7] 	0.0026999784001728
scalar abilene_cost_network.node[7].content_store 	correction_factor[7] 	0.0027225701061802
scalar abilene_cost_network.node[7].content_store 	xi[7] 	1
scalar abilene_cost_network.node[8].core_layer 	interests[8] 	49164
scalar abilene_cost_network.node[8].core_layer 	data[8] 	43043
scalar abilene_cost_network.node[8].content_store 	p_hit[8] 	0.12450166788707
scalar abilene_cost_network.node[8].content_store 	hits[8] 	6121
scalar abilene_cost_network.node[8].content_store 	misses[8] 	43043
scalar abilene_cost_network.node[8].content_store 	decision_yes[8] 	63
scalar abilene_cost_network.node[8].content_store 	decision_no[8] 	42980
scalar abilene_cost_network.node[8].content_store 	decision_ratio[8] 	0.0014636526264433
scalar abilene_cost_network.node[8].content_store 	correction_factor[8] 	0.0027225701061802
scalar abilene_cost_network.node[8].content_store 	xi[8] 	1
scalar abilene_cost_network.node[9].core_layer 	interests[9] 	180928
scalar abilene_cost_network.node[9].core_layer 	data[9] 	166853
scalar abilene_cost_network.node[9].content_store 	p_hit[9] 	0.065982048107534
scalar abilene_cost_network.node[9].content_store 	hits[9] 	11938
scalar abilene_cost_network.node[9].content_store 	misses[9] 	168990
scalar abilene_cost_network.node[9].content_store 	decision_yes[9] 	861
scalar abilene_cost_network.node[9].content_store 	decision_no[9] 	165992
scalar abilene_cost_network.node[9].content_store 	decision_ratio[9] 	0.0051602308618964
scalar abilene_cost_network.node[9].content_store 	correction_factor[9] 	0.0027225701061802
scalar abilene_cost_network.node[9].content_store 	xi[9] 	1
scalar abilene_cost_network.node[10].core_layer 	interests[10] 	220405
scalar abilene_cost_network.node[10].core_layer 	data[10] 	206797
scalar abilene_cost_network.node[10].content_store 	p_hit[10] 	0.06174088609605
scalar abilene_cost_network.node[10].content_store 	hits[10] 	13608
scalar abilene_cost_network.node[10].content_store 	misses[10] 	206797
scalar abilene_cost_network.node[10].content_store 	decision_yes[10] 	772
scalar abilene_cost_network.node[10].content_store 	decision_no[10] 	206025
scalar abilene_cost_network.node[10].content_store 	decision_ratio[10] 	0.0037331295908548
scalar abilene_cost_network.node[10].content_store 	correction_factor[10] 	0.0027225701061802
scalar abilene_cost_network.node[10].content_store 	xi[10] 	1
scalar abilene_cost_network.node[11].core_layer 	interests[11] 	154562
scalar abilene_cost_network.node[11].core_layer 	repo_load[11] 	154562
scalar abilene_cost_network.node[11].core_layer 	data[11] 	0
scalar abilene_cost_network.node[11].content_store 	p_hit[11] 	0
scalar abilene_cost_network.node[11].content_store 	hits[11] 	0
scalar abilene_cost_network.node[11].content_store 	misses[11] 	154562
scalar abilene_cost_network.node[11].content_store 	decision_yes[11] 	0
scalar abilene_cost_network.node[11].content_store 	decision_no[11] 	154562
scalar abilene_cost_network.node[11].content_store 	decision_ratio[11] 	0
scalar abilene_cost_network.node[12].core_layer 	interests[12] 	83334
scalar abilene_cost_network.node[12].core_layer 	repo_load[12] 	83334
scalar abilene_cost_network.node[12].core_layer 	data[12] 	0
scalar abilene_cost_network.node[12].content_store 	p_hit[12] 	0
scalar abilene_cost_network.node[12].content_store 	hits[12] 	0
scalar abilene_cost_network.node[12].content_store 	misses[12] 	83334
scalar abilene_cost_network.node[12].content_store 	decision_yes[12] 	0
scalar abilene_cost_network.node[12].content_store 	decision_no[12] 	83334
scalar abilene_cost_network.node[12].content_store 	decision_ratio[12] 	0
scalar abilene_cost_network.node[13].core_layer 	interests[13] 	85763
scalar abilene_cost_network.node[13].core_layer 	repo_load[13] 	85763
scalar abilene_cost_network.node[13].core_layer 	data[13] 	0
scalar abilene_cost_network.node[13].content_store 	p_hit[13] 	0
scalar abilene_cost_network.node[13].content_store 	hits[13] 	0
scalar abilene_cost_network.node[13].content_store 	misses[13] 	85763
scalar abilene_cost_network.node[13].content_store 	decision_yes[13] 	0
scalar abilene_cost_network.node[13].content_store 	decision_no[13] 	85763
scalar abilene_cost_network.node[13].content_store 	decision_ratio[13] 	0
scalar abilene_cost_network.client[0] 	hdistance[0] 	2.8782016486007
scalar abilene_cost_network.client[0] 	downloads[0] 	178697
scalar abilene_cost_network.client[0] 	avg_time[0] 	0.012592593509
scalar abilene_cost_network.client[0] 	interests_sent[0] 	180579
scalar abilene_cost_network.client[5] 	hdistance[5] 	4.5027323954852
scalar abilene_cost_network.client[5] 	downloads[5] 	176219
scalar abilene_cost_network.client[5] 	avg_time[5] 	0.017494074163
scalar abilene_cost_network.client[5] 	interests_sent[5] 	179431
scalar abilene_cost_network.client[9] 	hdistance[9] 	2.6747151702267
scalar abilene_cost_network.client[9] 	downloads[9] 	178791
scalar abilene_cost_network.client[9] 	avg_time[9] 	0.010962762601
scalar abilene_cost_network.client[9] 	interests_sent[9] 	180928
