version 2
run General-13-20140519-17:42:15-21146
attr D fix0.01
attr F nrr
attr R lru
attr a 1
attr configname General
attr csize 1e3
attr ctlg 1e6
attr datetime 20140519-17:42:15
attr experiment General
attr inifile omnetpp.ini
attr iterationvars "$net=one_cache_scenario_3_links, $rep=5, $priceratiovalue=10, $weights=0.333_0.333_0.334, $a=1, $ctlg=1e6, $F=nrr, $ttl=1000, $D=fix0.01, $xi=1, $R=lru, $csize=1e3, $pricebits=0"
attr iterationvars2 "$net=one_cache_scenario_3_links, $rep=5, $priceratiovalue=10, $weights=0.333_0.333_0.334, $a=1, $ctlg=1e6, $F=nrr, $ttl=1000, $D=fix0.01, $xi=1, $R=lru, $csize=1e3, $pricebits=0, $repetition=0"
attr measurement "$net=one_cache_scenario_3_links, $rep=5, $priceratiovalue=10, $weights=0.333_0.333_0.334, $a=1, $ctlg=1e6, $F=nrr, $ttl=1000, $D=fix0.01, $xi=1, $R=lru, $csize=1e3, $pricebits=0"
attr net one_cache_scenario_3_links
attr network networks.${net=one_cache_scenario_3_links}_network
attr pricebits 0
attr priceratiovalue 10
attr processid 21146
attr rep 5
attr repetition 0
attr replication #0
attr resultdir results
attr runnumber 13
attr seedset 5
attr ttl 1000
attr weights 0.333_0.333_0.334
attr xi 1

scalar . 	a 	1
scalar . 	csize 	1e3
scalar . 	ctlg 	1e6
scalar . 	pricebits 	0
scalar . 	priceratiovalue 	10
scalar . 	rep 	5
scalar . 	ttl 	1000
scalar . 	xi 	1
scalar one_cache_scenario_3_links_network.content_distribution 	repo-0 	4
scalar one_cache_scenario_3_links_network.content_distribution 	repo-1 	5
scalar one_cache_scenario_3_links_network.content_distribution 	repo-2 	6
scalar one_cache_scenario_3_links_network.content_distribution 	client-0 	0
scalar one_cache_scenario_3_links_network.content_distribution 	repo-0_card 	332363
scalar one_cache_scenario_3_links_network.content_distribution 	repo-1_card 	333311
scalar one_cache_scenario_3_links_network.content_distribution 	repo-2_card 	334326
scalar one_cache_scenario_3_links_network.statistics 	p_hit 	0.23795931525487
scalar one_cache_scenario_3_links_network.statistics 	interests 	522905.71428571
scalar one_cache_scenario_3_links_network.statistics 	data 	265650.28571429
scalar one_cache_scenario_3_links_network.statistics 	hdistance 	1.0326323809355
scalar one_cache_scenario_3_links_network.statistics 	avg_time 	0
scalar one_cache_scenario_3_links_network.statistics 	downloads 	1800788
scalar one_cache_scenario_3_links_network.statistics 	total_cost 	3433271
scalar one_cache_scenario_3_links_network.statistics 	total_replicas 	1000000
scalar one_cache_scenario_3_links_network.statistics 	interests_sent 	1800788
scalar one_cache_scenario_3_links_network.node[0].core_layer 	interests[0] 	1800788
scalar one_cache_scenario_3_links_network.node[0].core_layer 	data[0] 	929776
scalar one_cache_scenario_3_links_network.node[0].core_layer 	repo_int[0] 	929776
scalar one_cache_scenario_3_links_network.node[0].content_store 	p_hit[0] 	0.48368380953227
scalar one_cache_scenario_3_links_network.node[0].content_store 	hits[0] 	871012
scalar one_cache_scenario_3_links_network.node[0].content_store 	misses[0] 	929776
scalar one_cache_scenario_3_links_network.node[0].content_store 	decision_yes[0] 	9496
scalar one_cache_scenario_3_links_network.node[0].content_store 	decision_no[0] 	920280
scalar one_cache_scenario_3_links_network.node[0].content_store 	decision_ratio[0] 	0.010213212644766
scalar one_cache_scenario_3_links_network.node[1].core_layer 	interests[1] 	308573
scalar one_cache_scenario_3_links_network.node[1].core_layer 	data[1] 	308573
scalar one_cache_scenario_3_links_network.node[1].content_store 	p_hit[1] 	0
scalar one_cache_scenario_3_links_network.node[1].content_store 	hits[1] 	0
scalar one_cache_scenario_3_links_network.node[1].content_store 	misses[1] 	308573
scalar one_cache_scenario_3_links_network.node[1].content_store 	decision_yes[1] 	0
scalar one_cache_scenario_3_links_network.node[1].content_store 	decision_no[1] 	308573
scalar one_cache_scenario_3_links_network.node[1].content_store 	decision_ratio[1] 	0
scalar one_cache_scenario_3_links_network.node[2].core_layer 	interests[2] 	308751
scalar one_cache_scenario_3_links_network.node[2].core_layer 	data[2] 	308751
scalar one_cache_scenario_3_links_network.node[2].content_store 	p_hit[2] 	0
scalar one_cache_scenario_3_links_network.node[2].content_store 	hits[2] 	0
scalar one_cache_scenario_3_links_network.node[2].content_store 	misses[2] 	308751
scalar one_cache_scenario_3_links_network.node[2].content_store 	decision_yes[2] 	0
scalar one_cache_scenario_3_links_network.node[2].content_store 	decision_no[2] 	308751
scalar one_cache_scenario_3_links_network.node[2].content_store 	decision_ratio[2] 	0
scalar one_cache_scenario_3_links_network.node[3].core_layer 	interests[3] 	312452
scalar one_cache_scenario_3_links_network.node[3].core_layer 	data[3] 	312452
scalar one_cache_scenario_3_links_network.node[3].content_store 	p_hit[3] 	0
scalar one_cache_scenario_3_links_network.node[3].content_store 	hits[3] 	0
scalar one_cache_scenario_3_links_network.node[3].content_store 	misses[3] 	312452
scalar one_cache_scenario_3_links_network.node[3].content_store 	decision_yes[3] 	0
scalar one_cache_scenario_3_links_network.node[3].content_store 	decision_no[3] 	312452
scalar one_cache_scenario_3_links_network.node[3].content_store 	decision_ratio[3] 	0
scalar one_cache_scenario_3_links_network.node[4].core_layer 	interests[4] 	308573
scalar one_cache_scenario_3_links_network.node[4].core_layer 	repo_load[4] 	308573
scalar one_cache_scenario_3_links_network.node[4].core_layer 	data[4] 	0
scalar one_cache_scenario_3_links_network.node[4].content_store 	p_hit[4] 	0
scalar one_cache_scenario_3_links_network.node[4].content_store 	hits[4] 	0
scalar one_cache_scenario_3_links_network.node[4].content_store 	misses[4] 	308573
scalar one_cache_scenario_3_links_network.node[4].content_store 	decision_yes[4] 	0
scalar one_cache_scenario_3_links_network.node[4].content_store 	decision_no[4] 	308573
scalar one_cache_scenario_3_links_network.node[4].content_store 	decision_ratio[4] 	0
scalar one_cache_scenario_3_links_network.node[5].core_layer 	interests[5] 	308751
scalar one_cache_scenario_3_links_network.node[5].core_layer 	repo_load[5] 	308751
scalar one_cache_scenario_3_links_network.node[5].core_layer 	data[5] 	0
scalar one_cache_scenario_3_links_network.node[5].content_store 	p_hit[5] 	0
scalar one_cache_scenario_3_links_network.node[5].content_store 	hits[5] 	0
scalar one_cache_scenario_3_links_network.node[5].content_store 	misses[5] 	308751
scalar one_cache_scenario_3_links_network.node[5].content_store 	decision_yes[5] 	0
scalar one_cache_scenario_3_links_network.node[5].content_store 	decision_no[5] 	308751
scalar one_cache_scenario_3_links_network.node[5].content_store 	decision_ratio[5] 	0
scalar one_cache_scenario_3_links_network.node[6].core_layer 	interests[6] 	312452
scalar one_cache_scenario_3_links_network.node[6].core_layer 	repo_load[6] 	312452
scalar one_cache_scenario_3_links_network.node[6].core_layer 	data[6] 	0
scalar one_cache_scenario_3_links_network.node[6].content_store 	p_hit[6] 	0
scalar one_cache_scenario_3_links_network.node[6].content_store 	hits[6] 	0
scalar one_cache_scenario_3_links_network.node[6].content_store 	misses[6] 	312452
scalar one_cache_scenario_3_links_network.node[6].content_store 	decision_yes[6] 	0
scalar one_cache_scenario_3_links_network.node[6].content_store 	decision_no[6] 	312452
scalar one_cache_scenario_3_links_network.node[6].content_store 	decision_ratio[6] 	0
scalar one_cache_scenario_3_links_network.client[0] 	hdistance[0] 	1.0326323809355
scalar one_cache_scenario_3_links_network.client[0] 	downloads[0] 	1800788
scalar one_cache_scenario_3_links_network.client[0] 	avg_time[0] 	0
scalar one_cache_scenario_3_links_network.client[0] 	interests_sent[0] 	1800788
