version 2
run General-6-20150902-20:49:48-2319
attr C 1e3
attr D fix0.001
attr F spr
attr R partitionedn
attr a 1
attr brates 0.3_0.7_1.5_2.5_3.5
attr configname General
attr ctlg 1e5
attr datetime 20150902-20:49:48
attr experiment General
attr inifile omnetpp.ini
attr iterationvars "$net=abilene_nodelay, $rep=0, $lambda=100, $a=1, $ctlg=1e5, $brates=0.3_0.7_1.5_2.5_3.5, $F=spr, $ttl=1000, $D=fix0.001, $R=partitionedn, $proactiveprob=0.1, $C=1e3, $window=60, $variance=0.05, $mytime=180000"
attr iterationvars2 "$net=abilene_nodelay, $rep=0, $lambda=100, $a=1, $ctlg=1e5, $brates=0.3_0.7_1.5_2.5_3.5, $F=spr, $ttl=1000, $D=fix0.001, $R=partitionedn, $proactiveprob=0.1, $C=1e3, $window=60, $variance=0.05, $mytime=180000, $repetition=0"
attr lambda 100
attr measurement "$net=abilene_nodelay, $rep=0, $lambda=100, $a=1, $ctlg=1e5, $brates=0.3_0.7_1.5_2.5_3.5, $F=spr, $ttl=1000, $D=fix0.001, $R=partitionedn, $proactiveprob=0.1, $C=1e3, $window=60, $variance=0.05, $mytime=180000"
attr mytime 180000
attr net abilene_nodelay
attr network networks.${net=abilene_nodelay}_network
attr proactiveprob 0.1
attr processid 2319
attr rep 0
attr repetition 0
attr replication #0
attr resultdir results
attr runnumber 6
attr seedset 0
attr ttl 1000
attr variance 0.05
attr window 60

scalar . 	C 	1e3
scalar . 	a 	1
scalar . 	ctlg 	1e5
scalar . 	lambda 	100
scalar . 	mytime 	180000
scalar . 	proactiveprob 	0.1
scalar . 	rep 	0
scalar . 	ttl 	1000
scalar . 	variance 	0.05
scalar . 	window 	60
scalar abilene_nodelay_network.content_distribution 	repo-0 	5
scalar abilene_nodelay_network.content_distribution 	repo-1 	8
scalar abilene_nodelay_network.content_distribution 	repo-2 	9
scalar abilene_nodelay_network.content_distribution 	repo-3 	0
scalar abilene_nodelay_network.content_distribution 	repo-4 	1
scalar abilene_nodelay_network.content_distribution 	repo-5 	7
scalar abilene_nodelay_network.content_distribution 	repo-6 	6
scalar abilene_nodelay_network.content_distribution 	repo-7 	2
scalar abilene_nodelay_network.content_distribution 	repo-8 	4
scalar abilene_nodelay_network.content_distribution 	repo-9 	10
scalar abilene_nodelay_network.content_distribution 	repo-10 	3
scalar abilene_nodelay_network.content_distribution 	client-0 	10
scalar abilene_nodelay_network.content_distribution 	client-1 	9
scalar abilene_nodelay_network.content_distribution 	client-2 	8
scalar abilene_nodelay_network.content_distribution 	client-3 	7
scalar abilene_nodelay_network.content_distribution 	client-4 	3
scalar abilene_nodelay_network.content_distribution 	client-5 	6
scalar abilene_nodelay_network.content_distribution 	client-6 	5
scalar abilene_nodelay_network.content_distribution 	client-7 	1
scalar abilene_nodelay_network.content_distribution 	client-8 	4
scalar abilene_nodelay_network.content_distribution 	client-9 	0
scalar abilene_nodelay_network.content_distribution 	client-10 	2
scalar abilene_nodelay_network.content_distribution 	repo-0_card 	9071
scalar abilene_nodelay_network.content_distribution 	repo-0_price 	0
scalar abilene_nodelay_network.content_distribution 	repo-1_card 	8986
scalar abilene_nodelay_network.content_distribution 	repo-1_price 	0
scalar abilene_nodelay_network.content_distribution 	repo-2_card 	9050
scalar abilene_nodelay_network.content_distribution 	repo-2_price 	0
scalar abilene_nodelay_network.content_distribution 	repo-3_card 	8986
scalar abilene_nodelay_network.content_distribution 	repo-3_price 	0
scalar abilene_nodelay_network.content_distribution 	repo-4_card 	9064
scalar abilene_nodelay_network.content_distribution 	repo-4_price 	0
scalar abilene_nodelay_network.content_distribution 	repo-5_card 	9170
scalar abilene_nodelay_network.content_distribution 	repo-5_price 	0
scalar abilene_nodelay_network.content_distribution 	repo-6_card 	9151
scalar abilene_nodelay_network.content_distribution 	repo-6_price 	0
scalar abilene_nodelay_network.content_distribution 	repo-7_card 	9112
scalar abilene_nodelay_network.content_distribution 	repo-7_price 	0
scalar abilene_nodelay_network.content_distribution 	repo-8_card 	9132
scalar abilene_nodelay_network.content_distribution 	repo-8_price 	0
scalar abilene_nodelay_network.content_distribution 	repo-9_card 	9101
scalar abilene_nodelay_network.content_distribution 	repo-9_price 	0
scalar abilene_nodelay_network.content_distribution 	repo-10_card 	9177
scalar abilene_nodelay_network.content_distribution 	repo-10_price 	0
scalar abilene_nodelay_network.statistics 	stabilization_time 	36060
scalar abilene_nodelay_network.statistics 	p_hit 	0.27074965999662
scalar abilene_nodelay_network.statistics 	interests 	35627253
scalar abilene_nodelay_network.statistics 	data 	17313145.818182
scalar abilene_nodelay_network.statistics 	hdistance 	1.4045160760703
scalar abilene_nodelay_network.statistics 	avg_time 	0
scalar abilene_nodelay_network.statistics 	downloads 	197980075
scalar abilene_nodelay_network.statistics 	total_cost 	0
scalar abilene_nodelay_network.statistics 	total_replicas 	100000
scalar abilene_nodelay_network.statistics 	"representations_downloaded 0.513343:0.0591503:0.0414862:0.0286418:0.357378:" 	0
scalar abilene_nodelay_network.statistics 	"slots_per_representation 100:233:500:833:1167:" 	0
scalar abilene_nodelay_network.statistics 	inner_hit 	0.51839372724755
scalar abilene_nodelay_network.statistics 	execution_time 	8502
scalar abilene_nodelay_network.node[0].core_layer 	interests[0] 	24788716
scalar abilene_nodelay_network.node[0].core_layer 	repo_load[0] 	7803230
scalar abilene_nodelay_network.node[0].core_layer 	data[0] 	7978143
scalar abilene_nodelay_network.node[0].core_layer 	slots_sent[face$o[1]->client[0]] 	9256421559
scalar abilene_nodelay_network.node[0].core_layer 	slots_sent[face$o[2]->node[1]] 	558754013
scalar abilene_nodelay_network.node[0].core_layer 	slots_sent[face$o[3]->node[10]] 	176370674
scalar abilene_nodelay_network.node[0].content_store 	p_hit[0] 	0.3633646454298
scalar abilene_nodelay_network.node[0].content_store 	hits[0] 	9007343
scalar abilene_nodelay_network.node[0].content_store 	misses[0] 	15781373
scalar abilene_nodelay_network.node[0].content_store 	decision_yes[0] 	8069
scalar abilene_nodelay_network.node[0].content_store 	decision_no[0] 	15773304
scalar abilene_nodelay_network.node[0].content_store 	decision_ratio[0] 	0.00051129898520236
scalar abilene_nodelay_network.node[0].content_store 	"representation_breakdown[0] 0x7fff6087fd18:0x7fff6087fd18:0x7fff6087fd18:0x7fff6087fd18:0x7fff6087fd18:" 	0
scalar abilene_nodelay_network.node[0].proactive_component 	hdistance[0].proactive_component 	2.2009063831607
scalar abilene_nodelay_network.node[0].proactive_component 	downloads[0].proactive_component 	350845
scalar abilene_nodelay_network.node[0].proactive_component 	avg_time[0].proactive_component 	0
scalar abilene_nodelay_network.node[1].core_layer 	interests[1] 	41087274
scalar abilene_nodelay_network.node[1].core_layer 	repo_load[1] 	8978364
scalar abilene_nodelay_network.node[1].core_layer 	data[1] 	22187967
scalar abilene_nodelay_network.node[1].core_layer 	slots_sent[face$o[1]->client[1]] 	9367501509
scalar abilene_nodelay_network.node[1].core_layer 	slots_sent[face$o[2]->node[0]] 	853373095
scalar abilene_nodelay_network.node[1].core_layer 	slots_sent[face$o[3]->node[10]] 	630301240
scalar abilene_nodelay_network.node[1].core_layer 	slots_sent[face$o[4]->node[2]] 	1350164881
scalar abilene_nodelay_network.node[1].content_store 	p_hit[1] 	0.24146023900247
scalar abilene_nodelay_network.node[1].content_store 	hits[1] 	9920943
scalar abilene_nodelay_network.node[1].content_store 	misses[1] 	31166331
scalar abilene_nodelay_network.node[1].content_store 	decision_yes[1] 	22209
scalar abilene_nodelay_network.node[1].content_store 	decision_no[1] 	31144122
scalar abilene_nodelay_network.node[1].content_store 	decision_ratio[1] 	0.00071259590999018
scalar abilene_nodelay_network.node[1].content_store 	"representation_breakdown[1] 0x7fff6087fd18:0x7fff6087fd18:0x7fff6087fd18:0x7fff6087fd18:0x7fff6087fd18:" 	0
scalar abilene_nodelay_network.node[1].proactive_component 	hdistance[1].proactive_component 	2.3638753584434
scalar abilene_nodelay_network.node[1].proactive_component 	downloads[1].proactive_component 	465206
scalar abilene_nodelay_network.node[1].proactive_component 	avg_time[1].proactive_component 	0
scalar abilene_nodelay_network.node[2].core_layer 	interests[2] 	52789581
scalar abilene_nodelay_network.node[2].core_layer 	repo_load[2] 	9812643
scalar abilene_nodelay_network.node[2].core_layer 	data[2] 	32552239
scalar abilene_nodelay_network.node[2].core_layer 	slots_sent[face$o[1]->client[2]] 	9635368434
scalar abilene_nodelay_network.node[2].core_layer 	slots_sent[face$o[2]->node[1]] 	1608909523
scalar abilene_nodelay_network.node[2].core_layer 	slots_sent[face$o[3]->node[3]] 	1814794800
scalar abilene_nodelay_network.node[2].core_layer 	slots_sent[face$o[4]->node[8]] 	788727273
scalar abilene_nodelay_network.node[2].content_store 	p_hit[2] 	0.19747644899852
scalar abilene_nodelay_network.node[2].content_store 	hits[2] 	10424699
scalar abilene_nodelay_network.node[2].content_store 	misses[2] 	42364882
scalar abilene_nodelay_network.node[2].content_store 	decision_yes[2] 	32552
scalar abilene_nodelay_network.node[2].content_store 	decision_no[2] 	42332330
scalar abilene_nodelay_network.node[2].content_store 	decision_ratio[2] 	0.00076837225700286
scalar abilene_nodelay_network.node[2].content_store 	"representation_breakdown[2] 0x7fff6087fd18:0x7fff6087fd18:0x7fff6087fd18:0x7fff6087fd18:0x7fff6087fd18:" 	0
scalar abilene_nodelay_network.node[2].proactive_component 	hdistance[2].proactive_component 	2.3513282474912
scalar abilene_nodelay_network.node[2].proactive_component 	downloads[2].proactive_component 	493658
scalar abilene_nodelay_network.node[2].proactive_component 	avg_time[2].proactive_component 	0
scalar abilene_nodelay_network.node[3].core_layer 	interests[3] 	50016397
scalar abilene_nodelay_network.node[3].core_layer 	repo_load[3] 	9011878
scalar abilene_nodelay_network.node[3].core_layer 	data[3] 	29924896
scalar abilene_nodelay_network.node[3].core_layer 	slots_sent[face$o[1]->client[3]] 	10372541011
scalar abilene_nodelay_network.node[3].core_layer 	slots_sent[face$o[2]->node[2]] 	1777352843
scalar abilene_nodelay_network.node[3].core_layer 	slots_sent[face$o[3]->node[4]] 	1212173715
scalar abilene_nodelay_network.node[3].core_layer 	slots_sent[face$o[4]->node[7]] 	847997520
scalar abilene_nodelay_network.node[3].content_store 	p_hit[3] 	0.22151981479194
scalar abilene_nodelay_network.node[3].content_store 	hits[3] 	11079623
scalar abilene_nodelay_network.node[3].content_store 	misses[3] 	38936774
scalar abilene_nodelay_network.node[3].content_store 	decision_yes[3] 	29689
scalar abilene_nodelay_network.node[3].content_store 	decision_no[3] 	38907085
scalar abilene_nodelay_network.node[3].content_store 	decision_ratio[3] 	0.0007624925475336
scalar abilene_nodelay_network.node[3].content_store 	"representation_breakdown[3] 0x7fff6087fd18:0x7fff6087fd18:0x7fff6087fd18:0x7fff6087fd18:0x7fff6087fd18:" 	0
scalar abilene_nodelay_network.node[3].proactive_component 	hdistance[3].proactive_component 	2.3324152378765
scalar abilene_nodelay_network.node[3].proactive_component 	downloads[3].proactive_component 	505031
scalar abilene_nodelay_network.node[3].proactive_component 	avg_time[3].proactive_component 	0
scalar abilene_nodelay_network.node[4].core_layer 	interests[4] 	32038489
scalar abilene_nodelay_network.node[4].core_layer 	repo_load[4] 	7948227
scalar abilene_nodelay_network.node[4].core_layer 	data[4] 	14314325
scalar abilene_nodelay_network.node[4].core_layer 	slots_sent[face$o[1]->client[4]] 	9865132263
scalar abilene_nodelay_network.node[4].core_layer 	slots_sent[face$o[2]->node[3]] 	959825059
scalar abilene_nodelay_network.node[4].core_layer 	slots_sent[face$o[3]->node[5]] 	706138256
scalar abilene_nodelay_network.node[4].content_store 	p_hit[4] 	0.30513102537389
scalar abilene_nodelay_network.node[4].content_store 	hits[4] 	9775937
scalar abilene_nodelay_network.node[4].content_store 	misses[4] 	22262552
scalar abilene_nodelay_network.node[4].content_store 	decision_yes[4] 	14343
scalar abilene_nodelay_network.node[4].content_store 	decision_no[4] 	22248209
scalar abilene_nodelay_network.node[4].content_store 	decision_ratio[4] 	0.0006442657607268
scalar abilene_nodelay_network.node[4].content_store 	"representation_breakdown[4] 0x7fff6087fd18:0x7fff6087fd18:0x7fff6087fd18:0x7fff6087fd18:0x7fff6087fd18:" 	0
scalar abilene_nodelay_network.node[4].proactive_component 	hdistance[4].proactive_component 	2.2966424733814
scalar abilene_nodelay_network.node[4].proactive_component 	downloads[4].proactive_component 	388262
scalar abilene_nodelay_network.node[4].proactive_component 	avg_time[4].proactive_component 	0
scalar abilene_nodelay_network.node[5].core_layer 	interests[5] 	26558843
scalar abilene_nodelay_network.node[5].core_layer 	repo_load[5] 	9324290
scalar abilene_nodelay_network.node[5].core_layer 	data[5] 	9447938
scalar abilene_nodelay_network.node[5].core_layer 	slots_sent[face$o[1]->client[5]] 	7920047865
scalar abilene_nodelay_network.node[5].core_layer 	slots_sent[face$o[2]->node[4]] 	551484198
scalar abilene_nodelay_network.node[5].core_layer 	slots_sent[face$o[3]->node[6]] 	426548192
scalar abilene_nodelay_network.node[5].content_store 	p_hit[5] 	0.29318351706812
scalar abilene_nodelay_network.node[5].content_store 	hits[5] 	7786615
scalar abilene_nodelay_network.node[5].content_store 	misses[5] 	18772228
scalar abilene_nodelay_network.node[5].content_store 	decision_yes[5] 	9549
scalar abilene_nodelay_network.node[5].content_store 	decision_no[5] 	18762679
scalar abilene_nodelay_network.node[5].content_store 	decision_ratio[5] 	0.00050867696684698
scalar abilene_nodelay_network.node[5].content_store 	"representation_breakdown[5] 0x7fff6087fd18:0x7fff6087fd18:0x7fff6087fd18:0x7fff6087fd18:0x7fff6087fd18:" 	0
scalar abilene_nodelay_network.node[5].proactive_component 	hdistance[5].proactive_component 	2.2344454861303
scalar abilene_nodelay_network.node[5].proactive_component 	downloads[5].proactive_component 	362660
scalar abilene_nodelay_network.node[5].proactive_component 	avg_time[5].proactive_component 	0
scalar abilene_nodelay_network.node[6].core_layer 	interests[6] 	29619986
scalar abilene_nodelay_network.node[6].core_layer 	repo_load[6] 	8066899
scalar abilene_nodelay_network.node[6].core_layer 	data[6] 	12127566
scalar abilene_nodelay_network.node[6].core_layer 	slots_sent[face$o[1]->client[6]] 	9524236511
scalar abilene_nodelay_network.node[6].core_layer 	slots_sent[face$o[2]->node[5]] 	484027285
scalar abilene_nodelay_network.node[6].core_layer 	slots_sent[face$o[3]->node[7]] 	858417769
scalar abilene_nodelay_network.node[6].content_store 	p_hit[6] 	0.31821490395033
scalar abilene_nodelay_network.node[6].content_store 	hits[6] 	9425521
scalar abilene_nodelay_network.node[6].content_store 	misses[6] 	20194465
scalar abilene_nodelay_network.node[6].content_store 	decision_yes[6] 	12114
scalar abilene_nodelay_network.node[6].content_store 	decision_no[6] 	20182351
scalar abilene_nodelay_network.node[6].content_store 	decision_ratio[6] 	0.00059986733988744
scalar abilene_nodelay_network.node[6].content_store 	"representation_breakdown[6] 0x7fff6087fd18:0x7fff6087fd18:0x7fff6087fd18:0x7fff6087fd18:0x7fff6087fd18:" 	0
scalar abilene_nodelay_network.node[6].proactive_component 	hdistance[6].proactive_component 	2.2570907214611
scalar abilene_nodelay_network.node[6].proactive_component 	downloads[6].proactive_component 	372106
scalar abilene_nodelay_network.node[6].proactive_component 	avg_time[6].proactive_component 	0
scalar abilene_nodelay_network.node[7].core_layer 	interests[7] 	39173787
scalar abilene_nodelay_network.node[7].core_layer 	repo_load[7] 	8837509
scalar abilene_nodelay_network.node[7].core_layer 	data[7] 	19825534
scalar abilene_nodelay_network.node[7].core_layer 	slots_sent[face$o[1]->client[7]] 	10177605971
scalar abilene_nodelay_network.node[7].core_layer 	slots_sent[face$o[2]->node[3]] 	746520608
scalar abilene_nodelay_network.node[7].core_layer 	slots_sent[face$o[3]->node[6]] 	1069053065
scalar abilene_nodelay_network.node[7].core_layer 	slots_sent[face$o[4]->node[8]] 	719215752
scalar abilene_nodelay_network.node[7].content_store 	p_hit[7] 	0.26831064354335
scalar abilene_nodelay_network.node[7].content_store 	hits[7] 	10510744
scalar abilene_nodelay_network.node[7].content_store 	misses[7] 	28663043
scalar abilene_nodelay_network.node[7].content_store 	decision_yes[7] 	19811
scalar abilene_nodelay_network.node[7].content_store 	decision_no[7] 	28643232
scalar abilene_nodelay_network.node[7].content_store 	decision_ratio[7] 	0.0006911687639027
scalar abilene_nodelay_network.node[7].content_store 	"representation_breakdown[7] 0x7fff6087fd18:0x7fff6087fd18:0x7fff6087fd18:0x7fff6087fd18:0x7fff6087fd18:" 	0
scalar abilene_nodelay_network.node[7].proactive_component 	hdistance[7].proactive_component 	2.2302350256338
scalar abilene_nodelay_network.node[7].proactive_component 	downloads[7].proactive_component 	437314
scalar abilene_nodelay_network.node[7].proactive_component 	avg_time[7].proactive_component 	0
scalar abilene_nodelay_network.node[8].core_layer 	interests[8] 	37425816
scalar abilene_nodelay_network.node[8].core_layer 	repo_load[8] 	8125102
scalar abilene_nodelay_network.node[8].core_layer 	data[8] 	18858839
scalar abilene_nodelay_network.node[8].core_layer 	slots_sent[face$o[1]->client[8]] 	10246489543
scalar abilene_nodelay_network.node[8].core_layer 	slots_sent[face$o[2]->node[2]] 	648724883
scalar abilene_nodelay_network.node[8].core_layer 	slots_sent[face$o[3]->node[7]] 	682500636
scalar abilene_nodelay_network.node[8].core_layer 	slots_sent[face$o[4]->node[9]] 	964257238
scalar abilene_nodelay_network.node[8].content_store 	p_hit[8] 	0.27900193278351
scalar abilene_nodelay_network.node[8].content_store 	hits[8] 	10441875
scalar abilene_nodelay_network.node[8].content_store 	misses[8] 	26983941
scalar abilene_nodelay_network.node[8].content_store 	decision_yes[8] 	18684
scalar abilene_nodelay_network.node[8].content_store 	decision_no[8] 	26965257
scalar abilene_nodelay_network.node[8].content_store 	decision_ratio[8] 	0.00069241183117025
scalar abilene_nodelay_network.node[8].content_store 	"representation_breakdown[8] 0x7fff6087fd18:0x7fff6087fd18:0x7fff6087fd18:0x7fff6087fd18:0x7fff6087fd18:" 	0
scalar abilene_nodelay_network.node[8].proactive_component 	hdistance[8].proactive_component 	2.1918566327611
scalar abilene_nodelay_network.node[8].proactive_component 	downloads[8].proactive_component 	429331
scalar abilene_nodelay_network.node[8].proactive_component 	avg_time[8].proactive_component 	0
scalar abilene_nodelay_network.node[9].core_layer 	interests[9] 	29733046
scalar abilene_nodelay_network.node[9].core_layer 	repo_load[9] 	8505621
scalar abilene_nodelay_network.node[9].core_layer 	data[9] 	12174116
scalar abilene_nodelay_network.node[9].core_layer 	slots_sent[face$o[1]->client[9]] 	9237300839
scalar abilene_nodelay_network.node[9].core_layer 	slots_sent[face$o[2]->node[10]] 	567809958
scalar abilene_nodelay_network.node[9].core_layer 	slots_sent[face$o[3]->node[8]] 	770710877
scalar abilene_nodelay_network.node[9].content_store 	p_hit[9] 	0.30448642900563
scalar abilene_nodelay_network.node[9].content_store 	hits[9] 	9053309
scalar abilene_nodelay_network.node[9].content_store 	misses[9] 	20679737
scalar abilene_nodelay_network.node[9].content_store 	decision_yes[9] 	12393
scalar abilene_nodelay_network.node[9].content_store 	decision_no[9] 	20667344
scalar abilene_nodelay_network.node[9].content_store 	decision_ratio[9] 	0.00059928228294199
scalar abilene_nodelay_network.node[9].content_store 	"representation_breakdown[9] 0x7fff6087fd18:0x7fff6087fd18:0x7fff6087fd18:0x7fff6087fd18:0x7fff6087fd18:" 	0
scalar abilene_nodelay_network.node[9].proactive_component 	hdistance[9].proactive_component 	2.3020240887791
scalar abilene_nodelay_network.node[9].proactive_component 	downloads[9].proactive_component 	367474
scalar abilene_nodelay_network.node[9].proactive_component 	avg_time[9].proactive_component 	0
scalar abilene_nodelay_network.node[10].core_layer 	interests[10] 	28667848
scalar abilene_nodelay_network.node[10].core_layer 	repo_load[10] 	8934683
scalar abilene_nodelay_network.node[10].core_layer 	data[10] 	11053041
scalar abilene_nodelay_network.node[10].core_layer 	slots_sent[face$o[1]->client[10]] 	8689051774
scalar abilene_nodelay_network.node[10].core_layer 	slots_sent[face$o[2]->node[0]] 	200325946
scalar abilene_nodelay_network.node[10].core_layer 	slots_sent[face$o[3]->node[1]] 	480768747
scalar abilene_nodelay_network.node[10].core_layer 	slots_sent[face$o[4]->node[9]] 	509766899
scalar abilene_nodelay_network.node[10].content_store 	p_hit[10] 	0.30278254579835
scalar abilene_nodelay_network.node[10].content_store 	hits[10] 	8680124
scalar abilene_nodelay_network.node[10].content_store 	misses[10] 	19987724
scalar abilene_nodelay_network.node[10].content_store 	decision_yes[10] 	10784
scalar abilene_nodelay_network.node[10].content_store 	decision_no[10] 	19976940
scalar abilene_nodelay_network.node[10].content_store 	decision_ratio[10] 	0.0005395311642286
scalar abilene_nodelay_network.node[10].content_store 	"representation_breakdown[10] 0x7fff6087fd18:0x7fff6087fd18:0x7fff6087fd18:0x7fff6087fd18:0x7fff6087fd18:" 	0
scalar abilene_nodelay_network.node[10].proactive_component 	hdistance[10].proactive_component 	2.095089585695
scalar abilene_nodelay_network.node[10].proactive_component 	downloads[10].proactive_component 	389906
scalar abilene_nodelay_network.node[10].proactive_component 	avg_time[10].proactive_component 	0
scalar abilene_nodelay_network.client[0] 	hdistance[0].real 	1.6083412223158
scalar abilene_nodelay_network.client[0] 	downloads[0].real 	17997674
scalar abilene_nodelay_network.client[0] 	avg_time[0].real 	0
scalar abilene_nodelay_network.client[1] 	hdistance[1].real 	1.369050831199
scalar abilene_nodelay_network.client[1] 	downloads[1].real 	17997136
scalar abilene_nodelay_network.client[1] 	avg_time[1].real 	0
scalar abilene_nodelay_network.client[2] 	hdistance[2].real 	1.2071969710232
scalar abilene_nodelay_network.client[2] 	downloads[2].real 	17996571
scalar abilene_nodelay_network.client[2] 	avg_time[2].real 	0
scalar abilene_nodelay_network.client[3] 	hdistance[3].real 	1.1961437315318
scalar abilene_nodelay_network.client[3] 	downloads[3].real 	17999836
scalar abilene_nodelay_network.client[3] 	avg_time[3].real 	0
scalar abilene_nodelay_network.client[4] 	hdistance[4].real 	1.4569538505803
scalar abilene_nodelay_network.client[4] 	downloads[4].real 	18003910
scalar abilene_nodelay_network.client[4] 	avg_time[4].real 	0
scalar abilene_nodelay_network.client[5] 	hdistance[5].real 	1.6831825664178
scalar abilene_nodelay_network.client[5] 	downloads[5].real 	17998091
scalar abilene_nodelay_network.client[5] 	avg_time[5].real 	0
scalar abilene_nodelay_network.client[6] 	hdistance[6].real 	1.5070354611504
scalar abilene_nodelay_network.client[6] 	downloads[6].real 	18002800
scalar abilene_nodelay_network.client[6] 	avg_time[6].real 	0
scalar abilene_nodelay_network.client[7] 	hdistance[7].real 	1.2421700254168
scalar abilene_nodelay_network.client[7] 	downloads[7].real 	17996674
scalar abilene_nodelay_network.client[7] 	avg_time[7].real 	0
scalar abilene_nodelay_network.client[8] 	hdistance[8].real 	1.2201881200719
scalar abilene_nodelay_network.client[8] 	downloads[8].real 	17994890
scalar abilene_nodelay_network.client[8] 	avg_time[8].real 	0
scalar abilene_nodelay_network.client[9] 	hdistance[9].real 	1.4461778296922
scalar abilene_nodelay_network.client[9] 	downloads[9].real 	17998884
scalar abilene_nodelay_network.client[9] 	avg_time[9].real 	0
scalar abilene_nodelay_network.client[10] 	hdistance[10].real 	1.5132362273738
scalar abilene_nodelay_network.client[10] 	downloads[10].real 	17993609
scalar abilene_nodelay_network.client[10] 	avg_time[10].real 	0
