version 2
run General-14-20141007-10:58:31-8404
attr D costaware0.001
attr F nrr
attr R lru
attr a 1
attr configname General
attr csize 1e3
attr ctlg 1e5
attr datetime 20141007-10:58:31
attr experiment General
attr inifile omnetpp.ini
attr iterationvars "$net=abilene_cost, $rep=1, $priceratiovalue=10, $weights=0.333_0.333_0.334, $lambda=100, $a=1, $ctlg=1e5, $F=nrr, $ttl=10, $D=costaware0.001, $xi=1, $R=lru, $csize=1e3, $pricebits=0, $window=60, $variance=0.05, $mytime=1800"
attr iterationvars2 "$net=abilene_cost, $rep=1, $priceratiovalue=10, $weights=0.333_0.333_0.334, $lambda=100, $a=1, $ctlg=1e5, $F=nrr, $ttl=10, $D=costaware0.001, $xi=1, $R=lru, $csize=1e3, $pricebits=0, $window=60, $variance=0.05, $mytime=1800, $repetition=0"
attr lambda 100
attr measurement "$net=abilene_cost, $rep=1, $priceratiovalue=10, $weights=0.333_0.333_0.334, $lambda=100, $a=1, $ctlg=1e5, $F=nrr, $ttl=10, $D=costaware0.001, $xi=1, $R=lru, $csize=1e3, $pricebits=0, $window=60, $variance=0.05, $mytime=1800"
attr mytime 1800
attr net abilene_cost
attr network networks.${net=abilene_cost,geant_cost}_network
attr pricebits 0
attr priceratiovalue 10
attr processid 8404
attr rep 1
attr repetition 0
attr replication #0
attr resultdir results
attr runnumber 14
attr seedset 1
attr ttl 10
attr variance 0.05
attr weights 0.333_0.333_0.334
attr window 60
attr xi 1

scalar . 	a 	1
scalar . 	csize 	1e3
scalar . 	ctlg 	1e5
scalar . 	lambda 	100
scalar . 	mytime 	1800
scalar . 	pricebits 	0
scalar . 	priceratiovalue 	10
scalar . 	rep 	1
scalar . 	ttl 	10
scalar . 	variance 	0.05
scalar . 	window 	60
scalar . 	xi 	1
scalar abilene_cost_network.content_distribution 	repo-0 	10
scalar abilene_cost_network.content_distribution 	repo-1 	7
scalar abilene_cost_network.content_distribution 	repo-2 	5
scalar abilene_cost_network.content_distribution 	client-0 	8
scalar abilene_cost_network.content_distribution 	client-1 	7
scalar abilene_cost_network.content_distribution 	client-2 	2
scalar abilene_cost_network.content_distribution 	repo-0_card 	33397
scalar abilene_cost_network.content_distribution 	repo-0_price 	0
scalar abilene_cost_network.content_distribution 	repo-1_card 	33041
scalar abilene_cost_network.content_distribution 	repo-1_price 	10
scalar abilene_cost_network.content_distribution 	repo-2_card 	33562
scalar abilene_cost_network.content_distribution 	repo-2_price 	1
scalar abilene_cost_network.statistics 	repo_popularity[0] 	0.36106327575467
scalar abilene_cost_network.statistics 	repo_popularity[1] 	0.3490006524958
scalar abilene_cost_network.statistics 	repo_popularity[2] 	0.28993607174955
scalar abilene_cost_network.statistics 	stabilization_time 	36060
scalar abilene_cost_network.statistics 	p_hit 	0.13194837347059
scalar abilene_cost_network.statistics 	interests 	129989.54545455
scalar abilene_cost_network.statistics 	data 	80912.545454545
scalar abilene_cost_network.statistics 	hdistance 	2.3161325413457
scalar abilene_cost_network.statistics 	avg_time 	0.011452968889
scalar abilene_cost_network.statistics 	downloads 	535554
scalar abilene_cost_network.statistics 	total_cost 	883368
scalar abilene_cost_network.statistics 	total_replicas 	100000
scalar abilene_cost_network.statistics 	inner_hit 	0.35573817019386
scalar abilene_cost_network.node[0].core_layer 	interests[0] 	0
scalar abilene_cost_network.node[0].core_layer 	data[0] 	0
scalar abilene_cost_network.node[0].core_layer 	repo_int[0] 	345037
scalar abilene_cost_network.node[0].content_store 	p_hit[0] 	-nan
scalar abilene_cost_network.node[0].content_store 	hits[0] 	0
scalar abilene_cost_network.node[0].content_store 	misses[0] 	0
scalar abilene_cost_network.node[0].content_store 	decision_yes[0] 	0
scalar abilene_cost_network.node[0].content_store 	decision_no[0] 	0
scalar abilene_cost_network.node[0].content_store 	decision_ratio[0] 	0
scalar abilene_cost_network.node[0].content_store 	correction_factor[0] 	0.00027225701061802
scalar abilene_cost_network.node[0].content_store 	kappa[0] 	1
scalar abilene_cost_network.node[1].core_layer 	interests[1] 	64393
scalar abilene_cost_network.node[1].core_layer 	data[1] 	64393
scalar abilene_cost_network.node[1].content_store 	p_hit[1] 	0
scalar abilene_cost_network.node[1].content_store 	hits[1] 	0
scalar abilene_cost_network.node[1].content_store 	misses[1] 	64393
scalar abilene_cost_network.node[1].content_store 	decision_yes[1] 	0
scalar abilene_cost_network.node[1].content_store 	decision_no[1] 	64393
scalar abilene_cost_network.node[1].content_store 	decision_ratio[1] 	0
scalar abilene_cost_network.node[1].content_store 	correction_factor[1] 	0.00027225701061802
scalar abilene_cost_network.node[1].content_store 	kappa[1] 	1
scalar abilene_cost_network.node[2].core_layer 	interests[2] 	208136
scalar abilene_cost_network.node[2].core_layer 	data[2] 	159098
scalar abilene_cost_network.node[2].content_store 	p_hit[2] 	0.2309067148403
scalar abilene_cost_network.node[2].content_store 	hits[2] 	48060
scalar abilene_cost_network.node[2].content_store 	misses[2] 	160076
scalar abilene_cost_network.node[2].content_store 	decision_yes[2] 	90
scalar abilene_cost_network.node[2].content_store 	decision_no[2] 	159008
scalar abilene_cost_network.node[2].content_store 	decision_ratio[2] 	0.00056568907214421
scalar abilene_cost_network.node[2].content_store 	correction_factor[2] 	0.00027225701061802
scalar abilene_cost_network.node[2].content_store 	kappa[2] 	1
scalar abilene_cost_network.node[3].core_layer 	interests[3] 	94151
scalar abilene_cost_network.node[3].core_layer 	data[3] 	77538
scalar abilene_cost_network.node[3].content_store 	p_hit[3] 	0.17645059532028
scalar abilene_cost_network.node[3].content_store 	hits[3] 	16613
scalar abilene_cost_network.node[3].content_store 	misses[3] 	77538
scalar abilene_cost_network.node[3].content_store 	decision_yes[3] 	76
scalar abilene_cost_network.node[3].content_store 	decision_no[3] 	77462
scalar abilene_cost_network.node[3].content_store 	decision_ratio[3] 	0.00098016456447161
scalar abilene_cost_network.node[3].content_store 	correction_factor[3] 	0.00027225701061802
scalar abilene_cost_network.node[3].content_store 	kappa[3] 	1
scalar abilene_cost_network.node[4].core_layer 	interests[4] 	33683
scalar abilene_cost_network.node[4].core_layer 	data[4] 	29352
scalar abilene_cost_network.node[4].content_store 	p_hit[4] 	0.12858118338628
scalar abilene_cost_network.node[4].content_store 	hits[4] 	4331
scalar abilene_cost_network.node[4].content_store 	misses[4] 	29352
scalar abilene_cost_network.node[4].content_store 	decision_yes[4] 	10
scalar abilene_cost_network.node[4].content_store 	decision_no[4] 	29342
scalar abilene_cost_network.node[4].content_store 	decision_ratio[4] 	0.00034069228672663
scalar abilene_cost_network.node[4].content_store 	correction_factor[4] 	0.00027225701061802
scalar abilene_cost_network.node[4].content_store 	kappa[4] 	1
scalar abilene_cost_network.node[5].core_layer 	interests[5] 	87726
scalar abilene_cost_network.node[5].core_layer 	repo_load[5] 	73988
scalar abilene_cost_network.node[5].core_layer 	data[5] 	0
scalar abilene_cost_network.node[5].content_store 	p_hit[5] 	0.1566012356656
scalar abilene_cost_network.node[5].content_store 	hits[5] 	13738
scalar abilene_cost_network.node[5].content_store 	misses[5] 	73988
scalar abilene_cost_network.node[5].content_store 	decision_yes[5] 	16
scalar abilene_cost_network.node[5].content_store 	decision_no[5] 	73972
scalar abilene_cost_network.node[5].content_store 	decision_ratio[5] 	0.000216251283992
scalar abilene_cost_network.node[5].content_store 	correction_factor[5] 	0.00027225701061802
scalar abilene_cost_network.node[5].content_store 	kappa[5] 	1
scalar abilene_cost_network.node[6].core_layer 	interests[6] 	67103
scalar abilene_cost_network.node[6].core_layer 	data[6] 	58374
scalar abilene_cost_network.node[6].content_store 	p_hit[6] 	0.13008360281955
scalar abilene_cost_network.node[6].content_store 	hits[6] 	8729
scalar abilene_cost_network.node[6].content_store 	misses[6] 	58374
scalar abilene_cost_network.node[6].content_store 	decision_yes[6] 	8
scalar abilene_cost_network.node[6].content_store 	decision_no[6] 	58366
scalar abilene_cost_network.node[6].content_store 	decision_ratio[6] 	0.00013704731558571
scalar abilene_cost_network.node[6].content_store 	correction_factor[6] 	0.00027225701061802
scalar abilene_cost_network.node[6].content_store 	kappa[6] 	1
scalar abilene_cost_network.node[7].core_layer 	interests[7] 	299760
scalar abilene_cost_network.node[7].core_layer 	repo_load[7] 	80938
scalar abilene_cost_network.node[7].core_layer 	data[7] 	146060
scalar abilene_cost_network.node[7].content_store 	p_hit[7] 	0.2379570322925
scalar abilene_cost_network.node[7].content_store 	hits[7] 	71330
scalar abilene_cost_network.node[7].content_store 	misses[7] 	228430
scalar abilene_cost_network.node[7].content_store 	decision_yes[7] 	226
scalar abilene_cost_network.node[7].content_store 	decision_no[7] 	226772
scalar abilene_cost_network.node[7].content_store 	decision_ratio[7] 	0.00099560348549326
scalar abilene_cost_network.node[7].content_store 	correction_factor[7] 	0.00027225701061802
scalar abilene_cost_network.node[7].content_store 	kappa[7] 	1
scalar abilene_cost_network.node[8].core_layer 	interests[8] 	259105
scalar abilene_cost_network.node[8].core_layer 	data[8] 	229506
scalar abilene_cost_network.node[8].content_store 	p_hit[8] 	0.099843692711449
scalar abilene_cost_network.node[8].content_store 	hits[8] 	25870
scalar abilene_cost_network.node[8].content_store 	misses[8] 	233235
scalar abilene_cost_network.node[8].content_store 	decision_yes[8] 	69
scalar abilene_cost_network.node[8].content_store 	decision_no[8] 	229437
scalar abilene_cost_network.node[8].content_store 	decision_ratio[8] 	0.00030064573475203
scalar abilene_cost_network.node[8].content_store 	correction_factor[8] 	0.00027225701061802
scalar abilene_cost_network.node[8].content_store 	kappa[8] 	1
scalar abilene_cost_network.node[9].core_layer 	interests[9] 	125717
scalar abilene_cost_network.node[9].core_layer 	data[9] 	125717
scalar abilene_cost_network.node[9].content_store 	p_hit[9] 	0
scalar abilene_cost_network.node[9].content_store 	hits[9] 	0
scalar abilene_cost_network.node[9].content_store 	misses[9] 	125717
scalar abilene_cost_network.node[9].content_store 	decision_yes[9] 	0
scalar abilene_cost_network.node[9].content_store 	decision_no[9] 	125717
scalar abilene_cost_network.node[9].content_store 	decision_ratio[9] 	0
scalar abilene_cost_network.node[9].content_store 	correction_factor[9] 	0.00027225701061802
scalar abilene_cost_network.node[9].content_store 	kappa[9] 	1
scalar abilene_cost_network.node[10].core_layer 	interests[10] 	190111
scalar abilene_cost_network.node[10].core_layer 	repo_load[10] 	190111
scalar abilene_cost_network.node[10].core_layer 	data[10] 	0
scalar abilene_cost_network.node[10].content_store 	p_hit[10] 	0
scalar abilene_cost_network.node[10].content_store 	hits[10] 	0
scalar abilene_cost_network.node[10].content_store 	misses[10] 	190111
scalar abilene_cost_network.node[10].content_store 	decision_yes[10] 	0
scalar abilene_cost_network.node[10].content_store 	decision_no[10] 	190111
scalar abilene_cost_network.node[10].content_store 	decision_ratio[10] 	0
scalar abilene_cost_network.node[10].content_store 	correction_factor[10] 	0.00027225701061802
scalar abilene_cost_network.node[10].content_store 	kappa[10] 	1
scalar abilene_cost_network.client[2] 	hdistance[2] 	2.4105888438371
scalar abilene_cost_network.client[2] 	downloads[2] 	179793
scalar abilene_cost_network.client[2] 	avg_time[2] 	0.010869314045
scalar abilene_cost_network.client[7] 	hdistance[7] 	2.2076777070207
scalar abilene_cost_network.client[7] 	downloads[7] 	178074
scalar abilene_cost_network.client[7] 	avg_time[7] 	0.011183458747
scalar abilene_cost_network.client[8] 	hdistance[8] 	2.3301310731793
scalar abilene_cost_network.client[8] 	downloads[8] 	177687
scalar abilene_cost_network.client[8] 	avg_time[8] 	0.012306133877
