version 2
run General-4-20150224-18:04:14-13589
attr D costaware0.01
attr F nrr
attr R lru
attr a 1
attr configname General
attr csize 1e3
attr ctlg 1e5
attr datetime 20150224-18:04:14
attr experiment General
attr inifile omnetpp.ini
attr iterationvars "$rep=5, $net=abilene_cost, $lambda=100, $a=1, $ctlg=1e5, $F=nrr, $ttl=10, $D=costaware0.01, $R=lru, $csize=1e3, $window=60, $variance=0.05, $mytime=1800, $kappa=1, $priceratiovalue=10, $pricebits=0"
attr iterationvars2 "$rep=5, $net=abilene_cost, $lambda=100, $a=1, $ctlg=1e5, $F=nrr, $ttl=10, $D=costaware0.01, $R=lru, $csize=1e3, $window=60, $variance=0.05, $mytime=1800, $kappa=1, $priceratiovalue=10, $pricebits=0, $repetition=0"
attr kappa 1
attr lambda 100
attr measurement "$rep=5, $net=abilene_cost, $lambda=100, $a=1, $ctlg=1e5, $F=nrr, $ttl=10, $D=costaware0.01, $R=lru, $csize=1e3, $window=60, $variance=0.05, $mytime=1800, $kappa=1, $priceratiovalue=10, $pricebits=0"
attr mytime 1800
attr net abilene_cost
attr network networks.${net=abilene_cost}_network
attr pricebits 0
attr priceratiovalue 10
attr processid 13589
attr rep 5
attr repetition 0
attr replication #0
attr resultdir results
attr runnumber 4
attr seedset 5
attr ttl 10
attr variance 0.05
attr window 60

scalar . 	a 	1
scalar . 	csize 	1e3
scalar . 	ctlg 	1e5
scalar . 	kappa 	1
scalar . 	lambda 	100
scalar . 	mytime 	1800
scalar . 	pricebits 	0
scalar . 	priceratiovalue 	10
scalar . 	rep 	5
scalar . 	ttl 	10
scalar . 	variance 	0.05
scalar . 	window 	60
scalar abilene_cost_network.content_distribution 	repo-0 	9
scalar abilene_cost_network.content_distribution 	repo-1 	5
scalar abilene_cost_network.content_distribution 	repo-2 	1
scalar abilene_cost_network.content_distribution 	client-0 	4
scalar abilene_cost_network.content_distribution 	client-1 	9
scalar abilene_cost_network.content_distribution 	client-2 	0
scalar abilene_cost_network.content_distribution 	client-3 	8
scalar abilene_cost_network.content_distribution 	client-4 	10
scalar abilene_cost_network.content_distribution 	client-5 	2
scalar abilene_cost_network.content_distribution 	client-6 	1
scalar abilene_cost_network.content_distribution 	client-7 	5
scalar abilene_cost_network.content_distribution 	client-8 	3
scalar abilene_cost_network.content_distribution 	client-9 	6
scalar abilene_cost_network.content_distribution 	client-10 	7
scalar abilene_cost_network.content_distribution 	repo-0_card 	33094
scalar abilene_cost_network.content_distribution 	repo-0_price 	1
scalar abilene_cost_network.content_distribution 	repo-1_card 	33498
scalar abilene_cost_network.content_distribution 	repo-1_price 	10
scalar abilene_cost_network.content_distribution 	repo-2_card 	33408
scalar abilene_cost_network.content_distribution 	repo-2_price 	0
scalar abilene_cost_network.statistics 	repo_popularity[0] 	0.33980084657726
scalar abilene_cost_network.statistics 	repo_popularity[1] 	0.31851420178705
scalar abilene_cost_network.statistics 	repo_popularity[2] 	0.3416849516357
scalar abilene_cost_network.statistics 	stabilization_time 	295.8
scalar abilene_cost_network.statistics 	p_hit 	0.10892316512735
scalar abilene_cost_network.statistics 	interests 	538483
scalar abilene_cost_network.statistics 	data 	358552.54545455
scalar abilene_cost_network.statistics 	hdistance 	2.7243560990752
scalar abilene_cost_network.statistics 	avg_time 	0.013238982703
scalar abilene_cost_network.statistics 	downloads 	1951022
scalar abilene_cost_network.statistics 	total_cost 	3019699
scalar abilene_cost_network.statistics 	total_replicas 	100000
scalar abilene_cost_network.statistics 	inner_hit 	0.36436544539221
scalar abilene_cost_network.statistics 	interests_sent 	1979227
scalar abilene_cost_network.node[0].core_layer 	interests[0] 	190924
scalar abilene_cost_network.node[0].core_layer 	data[0] 	174397
scalar abilene_cost_network.node[0].core_layer 	repo_int[0] 	1240137
scalar abilene_cost_network.node[0].content_store 	p_hit[0] 	0.072683371393853
scalar abilene_cost_network.node[0].content_store 	hits[0] 	13877
scalar abilene_cost_network.node[0].content_store 	misses[0] 	177047
scalar abilene_cost_network.node[0].content_store 	decision_yes[0] 	742
scalar abilene_cost_network.node[0].content_store 	decision_no[0] 	173655
scalar abilene_cost_network.node[0].content_store 	decision_ratio[0] 	0.0042546603439279
scalar abilene_cost_network.node[0].content_store 	cache_value[0] 	1.2814485492781
scalar abilene_cost_network.node[0].content_store 	correction_factor[0] 	0.0027225701061802
scalar abilene_cost_network.node[0].content_store 	kappa[0] 	1
scalar abilene_cost_network.node[1].core_layer 	interests[1] 	912514
scalar abilene_cost_network.node[1].core_layer 	repo_load[1] 	660707
scalar abilene_cost_network.node[1].core_layer 	data[1] 	210165
scalar abilene_cost_network.node[1].content_store 	p_hit[1] 	0.039881031962249
scalar abilene_cost_network.node[1].content_store 	hits[1] 	36392
scalar abilene_cost_network.node[1].content_store 	misses[1] 	876122
scalar abilene_cost_network.node[1].content_store 	decision_yes[1] 	1903
scalar abilene_cost_network.node[1].content_store 	decision_no[1] 	868969
scalar abilene_cost_network.node[1].content_store 	decision_ratio[1] 	0.0021851661323363
scalar abilene_cost_network.node[1].content_store 	cache_value[1] 	3.2334520350571
scalar abilene_cost_network.node[1].content_store 	correction_factor[1] 	0.0027225701061802
scalar abilene_cost_network.node[1].content_store 	kappa[1] 	1
scalar abilene_cost_network.node[2].core_layer 	interests[2] 	825785
scalar abilene_cost_network.node[2].core_layer 	data[2] 	769161
scalar abilene_cost_network.node[2].content_store 	p_hit[2] 	0.051295434041548
scalar abilene_cost_network.node[2].content_store 	hits[2] 	42359
scalar abilene_cost_network.node[2].content_store 	misses[2] 	783426
scalar abilene_cost_network.node[2].content_store 	decision_yes[2] 	2703
scalar abilene_cost_network.node[2].content_store 	decision_no[2] 	766458
scalar abilene_cost_network.node[2].content_store 	decision_ratio[2] 	0.0035142187396397
scalar abilene_cost_network.node[2].content_store 	cache_value[2] 	2.5754114350279
scalar abilene_cost_network.node[2].content_store 	correction_factor[2] 	0.0027225701061802
scalar abilene_cost_network.node[2].content_store 	kappa[2] 	1
scalar abilene_cost_network.node[3].core_layer 	interests[3] 	672982
scalar abilene_cost_network.node[3].core_layer 	data[3] 	628739
scalar abilene_cost_network.node[3].content_store 	p_hit[3] 	0.045524248791201
scalar abilene_cost_network.node[3].content_store 	hits[3] 	30637
scalar abilene_cost_network.node[3].content_store 	misses[3] 	642345
scalar abilene_cost_network.node[3].content_store 	decision_yes[3] 	3325
scalar abilene_cost_network.node[3].content_store 	decision_no[3] 	625413
scalar abilene_cost_network.node[3].content_store 	decision_ratio[3] 	0.0052883713088759
scalar abilene_cost_network.node[3].content_store 	cache_value[3] 	1.6761320833337
scalar abilene_cost_network.node[3].content_store 	correction_factor[3] 	0.0027225701061802
scalar abilene_cost_network.node[3].content_store 	kappa[3] 	1
scalar abilene_cost_network.node[4].core_layer 	interests[4] 	435074
scalar abilene_cost_network.node[4].core_layer 	data[4] 	400176
scalar abilene_cost_network.node[4].content_store 	p_hit[4] 	0.067062154943757
scalar abilene_cost_network.node[4].content_store 	hits[4] 	29177
scalar abilene_cost_network.node[4].content_store 	misses[4] 	405897
scalar abilene_cost_network.node[4].content_store 	decision_yes[4] 	3880
scalar abilene_cost_network.node[4].content_store 	decision_no[4] 	396296
scalar abilene_cost_network.node[4].content_store 	decision_ratio[4] 	0.0096957338770941
scalar abilene_cost_network.node[4].content_store 	cache_value[4] 	4.7007546895425
scalar abilene_cost_network.node[4].content_store 	correction_factor[4] 	0.0027225701061802
scalar abilene_cost_network.node[4].content_store 	kappa[4] 	1
scalar abilene_cost_network.node[5].core_layer 	interests[5] 	541441
scalar abilene_cost_network.node[5].core_layer 	repo_load[5] 	271141
scalar abilene_cost_network.node[5].core_layer 	data[5] 	121234
scalar abilene_cost_network.node[5].content_store 	p_hit[5] 	0.26926664216415
scalar abilene_cost_network.node[5].content_store 	hits[5] 	145792
scalar abilene_cost_network.node[5].content_store 	misses[5] 	395649
scalar abilene_cost_network.node[5].content_store 	decision_yes[5] 	7447
scalar abilene_cost_network.node[5].content_store 	decision_no[5] 	384928
scalar abilene_cost_network.node[5].content_store 	decision_ratio[5] 	0.018979292768398
scalar abilene_cost_network.node[5].content_store 	cache_value[5] 	14.765921454389
scalar abilene_cost_network.node[5].content_store 	correction_factor[5] 	0.0027225701061802
scalar abilene_cost_network.node[5].content_store 	kappa[5] 	1
scalar abilene_cost_network.node[6].core_layer 	interests[6] 	367484
scalar abilene_cost_network.node[6].core_layer 	data[6] 	317155
scalar abilene_cost_network.node[6].content_store 	p_hit[6] 	0.11662004332161
scalar abilene_cost_network.node[6].content_store 	hits[6] 	42856
scalar abilene_cost_network.node[6].content_store 	misses[6] 	324628
scalar abilene_cost_network.node[6].content_store 	decision_yes[6] 	2834
scalar abilene_cost_network.node[6].content_store 	decision_no[6] 	314321
scalar abilene_cost_network.node[6].content_store 	decision_ratio[6] 	0.0089356939036118
scalar abilene_cost_network.node[6].content_store 	cache_value[6] 	6.9226486342792
scalar abilene_cost_network.node[6].content_store 	correction_factor[6] 	0.0027225701061802
scalar abilene_cost_network.node[6].content_store 	kappa[6] 	1
scalar abilene_cost_network.node[7].core_layer 	interests[7] 	453378
scalar abilene_cost_network.node[7].core_layer 	data[7] 	415320
scalar abilene_cost_network.node[7].content_store 	p_hit[7] 	0.060799156553693
scalar abilene_cost_network.node[7].content_store 	hits[7] 	27565
scalar abilene_cost_network.node[7].content_store 	misses[7] 	425813
scalar abilene_cost_network.node[7].content_store 	decision_yes[7] 	2107
scalar abilene_cost_network.node[7].content_store 	decision_no[7] 	413213
scalar abilene_cost_network.node[7].content_store 	decision_ratio[7] 	0.0050731965713185
scalar abilene_cost_network.node[7].content_store 	cache_value[7] 	1.0111652972392
scalar abilene_cost_network.node[7].content_store 	correction_factor[7] 	0.0027225701061802
scalar abilene_cost_network.node[7].content_store 	kappa[7] 	1
scalar abilene_cost_network.node[8].core_layer 	interests[8] 	542728
scalar abilene_cost_network.node[8].core_layer 	data[8] 	448784
scalar abilene_cost_network.node[8].content_store 	p_hit[8] 	0.12679463746112
scalar abilene_cost_network.node[8].content_store 	hits[8] 	68815
scalar abilene_cost_network.node[8].content_store 	misses[8] 	473913
scalar abilene_cost_network.node[8].content_store 	decision_yes[8] 	1783
scalar abilene_cost_network.node[8].content_store 	decision_no[8] 	447001
scalar abilene_cost_network.node[8].content_store 	decision_ratio[8] 	0.0039729580377197
scalar abilene_cost_network.node[8].content_store 	cache_value[8] 	3.0572979641838
scalar abilene_cost_network.node[8].content_store 	correction_factor[8] 	0.0027225701061802
scalar abilene_cost_network.node[8].content_store 	kappa[8] 	1
scalar abilene_cost_network.node[9].core_layer 	interests[9] 	620027
scalar abilene_cost_network.node[9].core_layer 	repo_load[9] 	308289
scalar abilene_cost_network.node[9].core_layer 	data[9] 	125424
scalar abilene_cost_network.node[9].content_store 	p_hit[9] 	0.29797734614783
scalar abilene_cost_network.node[9].content_store 	hits[9] 	184754
scalar abilene_cost_network.node[9].content_store 	misses[9] 	435273
scalar abilene_cost_network.node[9].content_store 	decision_yes[9] 	1487
scalar abilene_cost_network.node[9].content_store 	decision_no[9] 	432226
scalar abilene_cost_network.node[9].content_store 	decision_ratio[9] 	0.0034285345378165
scalar abilene_cost_network.node[9].content_store 	cache_value[9] 	2.1177182122095
scalar abilene_cost_network.node[9].content_store 	correction_factor[9] 	0.0027225701061802
scalar abilene_cost_network.node[9].content_store 	kappa[9] 	1
scalar abilene_cost_network.node[10].core_layer 	interests[10] 	360976
scalar abilene_cost_network.node[10].core_layer 	data[10] 	333523
scalar abilene_cost_network.node[10].content_store 	p_hit[10] 	0.06361087717743
scalar abilene_cost_network.node[10].content_store 	hits[10] 	22962
scalar abilene_cost_network.node[10].content_store 	misses[10] 	338014
scalar abilene_cost_network.node[10].content_store 	decision_yes[10] 	872
scalar abilene_cost_network.node[10].content_store 	decision_no[10] 	332651
scalar abilene_cost_network.node[10].content_store 	decision_ratio[10] 	0.0026145123424771
scalar abilene_cost_network.node[10].content_store 	cache_value[10] 	0.82972825741269
scalar abilene_cost_network.node[10].content_store 	correction_factor[10] 	0.0027225701061802
scalar abilene_cost_network.node[10].content_store 	kappa[10] 	1
scalar abilene_cost_network.client[0] 	hdistance[0] 	2.8862858691601
scalar abilene_cost_network.client[0] 	downloads[0] 	177102
scalar abilene_cost_network.client[0] 	avg_time[0] 	0.015576856055
scalar abilene_cost_network.client[0] 	interests_sent[0] 	179752
scalar abilene_cost_network.client[1] 	hdistance[1] 	2.2211461582639
scalar abilene_cost_network.client[1] 	downloads[1] 	177602
scalar abilene_cost_network.client[1] 	avg_time[1] 	0.009197219586
scalar abilene_cost_network.client[1] 	interests_sent[1] 	179730
scalar abilene_cost_network.client[2] 	hdistance[2] 	2.3073046863979
scalar abilene_cost_network.client[2] 	downloads[2] 	177215
scalar abilene_cost_network.client[2] 	avg_time[2] 	0.011437049835
scalar abilene_cost_network.client[2] 	interests_sent[2] 	179828
scalar abilene_cost_network.client[3] 	hdistance[3] 	2.7588465093072
scalar abilene_cost_network.client[3] 	downloads[3] 	176369
scalar abilene_cost_network.client[3] 	avg_time[3] 	0.013295166798
scalar abilene_cost_network.client[3] 	interests_sent[3] 	179408
scalar abilene_cost_network.client[4] 	hdistance[4] 	3.1849106910849
scalar abilene_cost_network.client[4] 	downloads[4] 	177026
scalar abilene_cost_network.client[4] 	avg_time[4] 	0.013935877038
scalar abilene_cost_network.client[4] 	interests_sent[4] 	180103
scalar abilene_cost_network.client[5] 	hdistance[5] 	3.2862381790502
scalar abilene_cost_network.client[5] 	downloads[5] 	176699
scalar abilene_cost_network.client[5] 	avg_time[5] 	0.015183183163
scalar abilene_cost_network.client[5] 	interests_sent[5] 	179969
scalar abilene_cost_network.client[6] 	hdistance[6] 	3.2144102561209
scalar abilene_cost_network.client[6] 	downloads[6] 	177221
scalar abilene_cost_network.client[6] 	avg_time[6] 	0.015578900758
scalar abilene_cost_network.client[6] 	interests_sent[6] 	180420
scalar abilene_cost_network.client[7] 	hdistance[7] 	2.8279247879444
scalar abilene_cost_network.client[7] 	downloads[7] 	177312
scalar abilene_cost_network.client[7] 	avg_time[7] 	0.013667955771
scalar abilene_cost_network.client[7] 	interests_sent[7] 	180078
scalar abilene_cost_network.client[8] 	hdistance[8] 	2.3876933990947
scalar abilene_cost_network.client[8] 	downloads[8] 	177612
scalar abilene_cost_network.client[8] 	avg_time[8] 	0.012688554966
scalar abilene_cost_network.client[8] 	interests_sent[8] 	179928
scalar abilene_cost_network.client[9] 	hdistance[9] 	2.3729287483852
scalar abilene_cost_network.client[9] 	downloads[9] 	178817
scalar abilene_cost_network.client[9] 	avg_time[9] 	0.012691132987
scalar abilene_cost_network.client[9] 	interests_sent[9] 	180279
scalar abilene_cost_network.client[10] 	hdistance[10] 	2.5202278050178
scalar abilene_cost_network.client[10] 	downloads[10] 	178047
scalar abilene_cost_network.client[10] 	avg_time[10] 	0.01237691278
scalar abilene_cost_network.client[10] 	interests_sent[10] 	179732
