version 2
run General-1-20150224-18:04:14-13586
attr D costaware0.01
attr F nrr
attr R lru
attr a 1
attr configname General
attr csize 1e3
attr ctlg 1e5
attr datetime 20150224-18:04:14
attr experiment General
attr inifile omnetpp.ini
attr iterationvars "$rep=2, $net=abilene_cost, $lambda=100, $a=1, $ctlg=1e5, $F=nrr, $ttl=10, $D=costaware0.01, $R=lru, $csize=1e3, $window=60, $variance=0.05, $mytime=1800, $kappa=1, $priceratiovalue=10, $pricebits=0"
attr iterationvars2 "$rep=2, $net=abilene_cost, $lambda=100, $a=1, $ctlg=1e5, $F=nrr, $ttl=10, $D=costaware0.01, $R=lru, $csize=1e3, $window=60, $variance=0.05, $mytime=1800, $kappa=1, $priceratiovalue=10, $pricebits=0, $repetition=0"
attr kappa 1
attr lambda 100
attr measurement "$rep=2, $net=abilene_cost, $lambda=100, $a=1, $ctlg=1e5, $F=nrr, $ttl=10, $D=costaware0.01, $R=lru, $csize=1e3, $window=60, $variance=0.05, $mytime=1800, $kappa=1, $priceratiovalue=10, $pricebits=0"
attr mytime 1800
attr net abilene_cost
attr network networks.${net=abilene_cost}_network
attr pricebits 0
attr priceratiovalue 10
attr processid 13586
attr rep 2
attr repetition 0
attr replication #0
attr resultdir results
attr runnumber 1
attr seedset 2
attr ttl 10
attr variance 0.05
attr window 60

scalar . 	a 	1
scalar . 	csize 	1e3
scalar . 	ctlg 	1e5
scalar . 	kappa 	1
scalar . 	lambda 	100
scalar . 	mytime 	1800
scalar . 	pricebits 	0
scalar . 	priceratiovalue 	10
scalar . 	rep 	2
scalar . 	ttl 	10
scalar . 	variance 	0.05
scalar . 	window 	60
scalar abilene_cost_network.content_distribution 	repo-0 	4
scalar abilene_cost_network.content_distribution 	repo-1 	9
scalar abilene_cost_network.content_distribution 	repo-2 	6
scalar abilene_cost_network.content_distribution 	client-0 	3
scalar abilene_cost_network.content_distribution 	client-1 	7
scalar abilene_cost_network.content_distribution 	client-2 	9
scalar abilene_cost_network.content_distribution 	client-3 	8
scalar abilene_cost_network.content_distribution 	client-4 	10
scalar abilene_cost_network.content_distribution 	client-5 	6
scalar abilene_cost_network.content_distribution 	client-6 	4
scalar abilene_cost_network.content_distribution 	client-7 	0
scalar abilene_cost_network.content_distribution 	client-8 	5
scalar abilene_cost_network.content_distribution 	client-9 	2
scalar abilene_cost_network.content_distribution 	client-10 	1
scalar abilene_cost_network.content_distribution 	repo-0_card 	33329
scalar abilene_cost_network.content_distribution 	repo-0_price 	1
scalar abilene_cost_network.content_distribution 	repo-1_card 	33052
scalar abilene_cost_network.content_distribution 	repo-1_price 	10
scalar abilene_cost_network.content_distribution 	repo-2_card 	33619
scalar abilene_cost_network.content_distribution 	repo-2_price 	0
scalar abilene_cost_network.statistics 	repo_popularity[0] 	0.31276902170292
scalar abilene_cost_network.statistics 	repo_popularity[1] 	0.43236668778602
scalar abilene_cost_network.statistics 	repo_popularity[2] 	0.25486429051107
scalar abilene_cost_network.statistics 	stabilization_time 	293.5
scalar abilene_cost_network.statistics 	p_hit 	0.13811402918884
scalar abilene_cost_network.statistics 	interests 	536014.27272727
scalar abilene_cost_network.statistics 	data 	356019.09090909
scalar abilene_cost_network.statistics 	hdistance 	2.6088099018239
scalar abilene_cost_network.statistics 	avg_time 	0.013115309172
scalar abilene_cost_network.statistics 	downloads 	1953270
scalar abilene_cost_network.statistics 	total_cost 	3035691
scalar abilene_cost_network.statistics 	total_replicas 	100000
scalar abilene_cost_network.statistics 	inner_hit 	0.44715835496373
scalar abilene_cost_network.statistics 	interests_sent 	1979959
scalar abilene_cost_network.node[0].core_layer 	interests[0] 	195865
scalar abilene_cost_network.node[0].core_layer 	data[0] 	172609
scalar abilene_cost_network.node[0].core_layer 	repo_int[0] 	1079849
scalar abilene_cost_network.node[0].content_store 	p_hit[0] 	0.10505194904654
scalar abilene_cost_network.node[0].content_store 	hits[0] 	20576
scalar abilene_cost_network.node[0].content_store 	misses[0] 	175289
scalar abilene_cost_network.node[0].content_store 	decision_yes[0] 	745
scalar abilene_cost_network.node[0].content_store 	decision_no[0] 	171864
scalar abilene_cost_network.node[0].content_store 	decision_ratio[0] 	0.0043161132965257
scalar abilene_cost_network.node[0].content_store 	cache_value[0] 	3.3383356660698
scalar abilene_cost_network.node[0].content_store 	correction_factor[0] 	0.0027225701061802
scalar abilene_cost_network.node[0].content_store 	kappa[0] 	1
scalar abilene_cost_network.node[1].core_layer 	interests[1] 	372162
scalar abilene_cost_network.node[1].core_layer 	data[1] 	339522
scalar abilene_cost_network.node[1].content_store 	p_hit[1] 	0.072694149322069
scalar abilene_cost_network.node[1].content_store 	hits[1] 	27054
scalar abilene_cost_network.node[1].content_store 	misses[1] 	345108
scalar abilene_cost_network.node[1].content_store 	decision_yes[1] 	851
scalar abilene_cost_network.node[1].content_store 	decision_no[1] 	338671
scalar abilene_cost_network.node[1].content_store 	decision_ratio[1] 	0.0025064649713421
scalar abilene_cost_network.node[1].content_store 	cache_value[1] 	1.5946005857353
scalar abilene_cost_network.node[1].content_store 	correction_factor[1] 	0.0027225701061802
scalar abilene_cost_network.node[1].content_store 	kappa[1] 	1
scalar abilene_cost_network.node[2].core_layer 	interests[2] 	683184
scalar abilene_cost_network.node[2].core_layer 	data[2] 	619797
scalar abilene_cost_network.node[2].content_store 	p_hit[2] 	0.073031569825991
scalar abilene_cost_network.node[2].content_store 	hits[2] 	49894
scalar abilene_cost_network.node[2].content_store 	misses[2] 	633290
scalar abilene_cost_network.node[2].content_store 	decision_yes[2] 	2256
scalar abilene_cost_network.node[2].content_store 	decision_no[2] 	617540
scalar abilene_cost_network.node[2].content_store 	decision_ratio[2] 	0.0036399073243454
scalar abilene_cost_network.node[2].content_store 	cache_value[2] 	2.6879236681631
scalar abilene_cost_network.node[2].content_store 	correction_factor[2] 	0.0027225701061802
scalar abilene_cost_network.node[2].content_store 	kappa[2] 	1
scalar abilene_cost_network.node[3].core_layer 	interests[3] 	771289
scalar abilene_cost_network.node[3].core_layer 	data[3] 	645213
scalar abilene_cost_network.node[3].content_store 	p_hit[3] 	0.15331996177827
scalar abilene_cost_network.node[3].content_store 	hits[3] 	118254
scalar abilene_cost_network.node[3].content_store 	misses[3] 	653035
scalar abilene_cost_network.node[3].content_store 	decision_yes[3] 	1770
scalar abilene_cost_network.node[3].content_store 	decision_no[3] 	643443
scalar abilene_cost_network.node[3].content_store 	decision_ratio[3] 	0.0027432801260979
scalar abilene_cost_network.node[3].content_store 	cache_value[3] 	3.4219136651303
scalar abilene_cost_network.node[3].content_store 	correction_factor[3] 	0.0027225701061802
scalar abilene_cost_network.node[3].content_store 	kappa[3] 	1
scalar abilene_cost_network.node[4].core_layer 	interests[4] 	609606
scalar abilene_cost_network.node[4].core_layer 	repo_load[4] 	305621
scalar abilene_cost_network.node[4].core_layer 	data[4] 	128044
scalar abilene_cost_network.node[4].content_store 	p_hit[4] 	0.28414746574017
scalar abilene_cost_network.node[4].content_store 	hits[4] 	173218
scalar abilene_cost_network.node[4].content_store 	misses[4] 	436388
scalar abilene_cost_network.node[4].content_store 	decision_yes[4] 	1430
scalar abilene_cost_network.node[4].content_store 	decision_no[4] 	432235
scalar abilene_cost_network.node[4].content_store 	decision_ratio[4] 	0.0032974761624756
scalar abilene_cost_network.node[4].content_store 	cache_value[4] 	4.674437598638
scalar abilene_cost_network.node[4].content_store 	correction_factor[4] 	0.0027225701061802
scalar abilene_cost_network.node[4].content_store 	kappa[4] 	1
scalar abilene_cost_network.node[5].core_layer 	interests[5] 	288005
scalar abilene_cost_network.node[5].core_layer 	data[5] 	269799
scalar abilene_cost_network.node[5].content_store 	p_hit[5] 	0.049874134129616
scalar abilene_cost_network.node[5].content_store 	hits[5] 	14364
scalar abilene_cost_network.node[5].content_store 	misses[5] 	273641
scalar abilene_cost_network.node[5].content_store 	decision_yes[5] 	746
scalar abilene_cost_network.node[5].content_store 	decision_no[5] 	269053
scalar abilene_cost_network.node[5].content_store 	decision_ratio[5] 	0.002765021367759
scalar abilene_cost_network.node[5].content_store 	cache_value[5] 	1.2220561185396
scalar abilene_cost_network.node[5].content_store 	correction_factor[5] 	0.0027225701061802
scalar abilene_cost_network.node[5].content_store 	kappa[5] 	1
scalar abilene_cost_network.node[6].core_layer 	interests[6] 	708383
scalar abilene_cost_network.node[6].core_layer 	repo_load[6] 	501221
scalar abilene_cost_network.node[6].core_layer 	data[6] 	184594
scalar abilene_cost_network.node[6].content_store 	p_hit[6] 	0.021084639241766
scalar abilene_cost_network.node[6].content_store 	hits[6] 	14936
scalar abilene_cost_network.node[6].content_store 	misses[6] 	693447
scalar abilene_cost_network.node[6].content_store 	decision_yes[6] 	1269
scalar abilene_cost_network.node[6].content_store 	decision_no[6] 	684546
scalar abilene_cost_network.node[6].content_store 	decision_ratio[6] 	0.0018503532293694
scalar abilene_cost_network.node[6].content_store 	cache_value[6] 	1.7027568548923
scalar abilene_cost_network.node[6].content_store 	correction_factor[6] 	0.0027225701061802
scalar abilene_cost_network.node[6].content_store 	kappa[6] 	1
scalar abilene_cost_network.node[7].core_layer 	interests[7] 	649100
scalar abilene_cost_network.node[7].core_layer 	data[7] 	611808
scalar abilene_cost_network.node[7].content_store 	p_hit[7] 	0.041825604683408
scalar abilene_cost_network.node[7].content_store 	hits[7] 	27149
scalar abilene_cost_network.node[7].content_store 	misses[7] 	621951
scalar abilene_cost_network.node[7].content_store 	decision_yes[7] 	1973
scalar abilene_cost_network.node[7].content_store 	decision_no[7] 	609835
scalar abilene_cost_network.node[7].content_store 	decision_ratio[7] 	0.0032248679324232
scalar abilene_cost_network.node[7].content_store 	cache_value[7] 	2.6575993465211
scalar abilene_cost_network.node[7].content_store 	correction_factor[7] 	0.0027225701061802
scalar abilene_cost_network.node[7].content_store 	kappa[7] 	1
scalar abilene_cost_network.node[8].core_layer 	interests[8] 	638115
scalar abilene_cost_network.node[8].core_layer 	data[8] 	529338
scalar abilene_cost_network.node[8].content_store 	p_hit[8] 	0.12892033567617
scalar abilene_cost_network.node[8].content_store 	hits[8] 	82266
scalar abilene_cost_network.node[8].content_store 	misses[8] 	555849
scalar abilene_cost_network.node[8].content_store 	decision_yes[8] 	4615
scalar abilene_cost_network.node[8].content_store 	decision_no[8] 	524723
scalar abilene_cost_network.node[8].content_store 	decision_ratio[8] 	0.0087184369911097
scalar abilene_cost_network.node[8].content_store 	cache_value[8] 	8.159789012041
scalar abilene_cost_network.node[8].content_store 	correction_factor[8] 	0.0027225701061802
scalar abilene_cost_network.node[8].content_store 	kappa[8] 	1
scalar abilene_cost_network.node[9].core_layer 	interests[9] 	664321
scalar abilene_cost_network.node[9].core_layer 	repo_load[9] 	273007
scalar abilene_cost_network.node[9].core_layer 	data[9] 	147259
scalar abilene_cost_network.node[9].content_store 	p_hit[9] 	0.36506297407428
scalar abilene_cost_network.node[9].content_store 	hits[9] 	242519
scalar abilene_cost_network.node[9].content_store 	misses[9] 	421802
scalar abilene_cost_network.node[9].content_store 	decision_yes[9] 	7526
scalar abilene_cost_network.node[9].content_store 	decision_no[9] 	412740
scalar abilene_cost_network.node[9].content_store 	decision_ratio[9] 	0.017907706071869
scalar abilene_cost_network.node[9].content_store 	cache_value[9] 	27.270930174272
scalar abilene_cost_network.node[9].content_store 	correction_factor[9] 	0.0027225701061802
scalar abilene_cost_network.node[9].content_store 	kappa[9] 	1
scalar abilene_cost_network.node[10].core_layer 	interests[10] 	316127
scalar abilene_cost_network.node[10].core_layer 	data[10] 	268227
scalar abilene_cost_network.node[10].content_store 	p_hit[10] 	0.13953885621918
scalar abilene_cost_network.node[10].content_store 	hits[10] 	44112
scalar abilene_cost_network.node[10].content_store 	misses[10] 	272015
scalar abilene_cost_network.node[10].content_store 	decision_yes[10] 	2099
scalar abilene_cost_network.node[10].content_store 	decision_no[10] 	266128
scalar abilene_cost_network.node[10].content_store 	decision_ratio[10] 	0.0078254612697454
scalar abilene_cost_network.node[10].content_store 	cache_value[10] 	8.1777263188976
scalar abilene_cost_network.node[10].content_store 	correction_factor[10] 	0.0027225701061802
scalar abilene_cost_network.node[10].content_store 	kappa[10] 	1
scalar abilene_cost_network.client[0] 	hdistance[0] 	3.6779701089251
scalar abilene_cost_network.client[0] 	downloads[0] 	177645
scalar abilene_cost_network.client[0] 	avg_time[0] 	0.019385426261
scalar abilene_cost_network.client[0] 	interests_sent[0] 	180325
scalar abilene_cost_network.client[1] 	hdistance[1] 	3.1078670550519
scalar abilene_cost_network.client[1] 	downloads[1] 	177487
scalar abilene_cost_network.client[1] 	avg_time[1] 	0.014087163358
scalar abilene_cost_network.client[1] 	interests_sent[1] 	179870
scalar abilene_cost_network.client[2] 	hdistance[2] 	2.5590946766581
scalar abilene_cost_network.client[2] 	downloads[2] 	177351
scalar abilene_cost_network.client[2] 	avg_time[2] 	0.012310345584
scalar abilene_cost_network.client[2] 	interests_sent[2] 	179826
scalar abilene_cost_network.client[3] 	hdistance[3] 	2.3053164413777
scalar abilene_cost_network.client[3] 	downloads[3] 	176810
scalar abilene_cost_network.client[3] 	avg_time[3] 	0.010649998312
scalar abilene_cost_network.client[3] 	interests_sent[3] 	179351
scalar abilene_cost_network.client[4] 	hdistance[4] 	2.4181842815368
scalar abilene_cost_network.client[4] 	downloads[4] 	177142
scalar abilene_cost_network.client[4] 	avg_time[4] 	0.01051568061
scalar abilene_cost_network.client[4] 	interests_sent[4] 	179820
scalar abilene_cost_network.client[5] 	hdistance[5] 	2.5175535575286
scalar abilene_cost_network.client[5] 	downloads[5] 	177286
scalar abilene_cost_network.client[5] 	avg_time[5] 	0.011991933204
scalar abilene_cost_network.client[5] 	interests_sent[5] 	180526
scalar abilene_cost_network.client[6] 	hdistance[6] 	2.2470839846285
scalar abilene_cost_network.client[6] 	downloads[6] 	177211
scalar abilene_cost_network.client[6] 	avg_time[6] 	0.011626835735
scalar abilene_cost_network.client[6] 	interests_sent[6] 	180469
scalar abilene_cost_network.client[7] 	hdistance[7] 	2.0847020535026
scalar abilene_cost_network.client[7] 	downloads[7] 	177599
scalar abilene_cost_network.client[7] 	avg_time[7] 	0.010218770934
scalar abilene_cost_network.client[7] 	interests_sent[7] 	180172
scalar abilene_cost_network.client[8] 	hdistance[8] 	2.2603910120212
scalar abilene_cost_network.client[8] 	downloads[8] 	177437
scalar abilene_cost_network.client[8] 	avg_time[8] 	0.012188091346
scalar abilene_cost_network.client[8] 	interests_sent[8] 	179578
scalar abilene_cost_network.client[9] 	hdistance[9] 	2.4696494870611
scalar abilene_cost_network.client[9] 	downloads[9] 	179651
scalar abilene_cost_network.client[9] 	avg_time[9] 	0.015300650949
scalar abilene_cost_network.client[9] 	interests_sent[9] 	180915
scalar abilene_cost_network.client[10] 	hdistance[10] 	3.0490962617717
scalar abilene_cost_network.client[10] 	downloads[10] 	177651
scalar abilene_cost_network.client[10] 	avg_time[10] 	0.015993504603
scalar abilene_cost_network.client[10] 	interests_sent[10] 	179107
