version 2
run General-14-20150224-18:09:53-13609
attr D costaware0.01
attr F nrr
attr R lru
attr a 1
attr configname General
attr csize 1e3
attr ctlg 1e5
attr datetime 20150224-18:09:53
attr experiment General
attr inifile omnetpp.ini
attr iterationvars "$rep=15, $net=abilene_cost, $lambda=100, $a=1, $ctlg=1e5, $F=nrr, $ttl=10, $D=costaware0.01, $R=lru, $csize=1e3, $window=60, $variance=0.05, $mytime=1800, $kappa=1, $priceratiovalue=10, $pricebits=0"
attr iterationvars2 "$rep=15, $net=abilene_cost, $lambda=100, $a=1, $ctlg=1e5, $F=nrr, $ttl=10, $D=costaware0.01, $R=lru, $csize=1e3, $window=60, $variance=0.05, $mytime=1800, $kappa=1, $priceratiovalue=10, $pricebits=0, $repetition=0"
attr kappa 1
attr lambda 100
attr measurement "$rep=15, $net=abilene_cost, $lambda=100, $a=1, $ctlg=1e5, $F=nrr, $ttl=10, $D=costaware0.01, $R=lru, $csize=1e3, $window=60, $variance=0.05, $mytime=1800, $kappa=1, $priceratiovalue=10, $pricebits=0"
attr mytime 1800
attr net abilene_cost
attr network networks.${net=abilene_cost}_network
attr pricebits 0
attr priceratiovalue 10
attr processid 13609
attr rep 15
attr repetition 0
attr replication #0
attr resultdir results
attr runnumber 14
attr seedset 15
attr ttl 10
attr variance 0.05
attr window 60

scalar . 	a 	1
scalar . 	csize 	1e3
scalar . 	ctlg 	1e5
scalar . 	kappa 	1
scalar . 	lambda 	100
scalar . 	mytime 	1800
scalar . 	pricebits 	0
scalar . 	priceratiovalue 	10
scalar . 	rep 	15
scalar . 	ttl 	10
scalar . 	variance 	0.05
scalar . 	window 	60
scalar abilene_cost_network.content_distribution 	repo-0 	5
scalar abilene_cost_network.content_distribution 	repo-1 	8
scalar abilene_cost_network.content_distribution 	repo-2 	4
scalar abilene_cost_network.content_distribution 	client-0 	3
scalar abilene_cost_network.content_distribution 	client-1 	2
scalar abilene_cost_network.content_distribution 	client-2 	0
scalar abilene_cost_network.content_distribution 	client-3 	8
scalar abilene_cost_network.content_distribution 	client-4 	7
scalar abilene_cost_network.content_distribution 	client-5 	6
scalar abilene_cost_network.content_distribution 	client-6 	4
scalar abilene_cost_network.content_distribution 	client-7 	1
scalar abilene_cost_network.content_distribution 	client-8 	5
scalar abilene_cost_network.content_distribution 	client-9 	10
scalar abilene_cost_network.content_distribution 	client-10 	9
scalar abilene_cost_network.content_distribution 	repo-0_card 	33347
scalar abilene_cost_network.content_distribution 	repo-0_price 	1
scalar abilene_cost_network.content_distribution 	repo-1_card 	33289
scalar abilene_cost_network.content_distribution 	repo-1_price 	0
scalar abilene_cost_network.content_distribution 	repo-2_card 	33364
scalar abilene_cost_network.content_distribution 	repo-2_price 	10
scalar abilene_cost_network.statistics 	repo_popularity[0] 	0.33289768107616
scalar abilene_cost_network.statistics 	repo_popularity[1] 	0.33364480382224
scalar abilene_cost_network.statistics 	repo_popularity[2] 	0.33345751510162
scalar abilene_cost_network.statistics 	stabilization_time 	285.4
scalar abilene_cost_network.statistics 	p_hit 	0.12200192951541
scalar abilene_cost_network.statistics 	interests 	531739.72727273
scalar abilene_cost_network.statistics 	data 	351592.45454545
scalar abilene_cost_network.statistics 	hdistance 	2.638381675655
scalar abilene_cost_network.statistics 	avg_time 	0.012014606275
scalar abilene_cost_network.statistics 	downloads 	1958318
scalar abilene_cost_network.statistics 	total_cost 	3075854
scalar abilene_cost_network.statistics 	total_replicas 	100000
scalar abilene_cost_network.statistics 	inner_hit 	0.38347500252768
scalar abilene_cost_network.statistics 	interests_sent 	1981623
scalar abilene_cost_network.node[0].core_layer 	interests[0] 	186630
scalar abilene_cost_network.node[0].core_layer 	data[0] 	174367
scalar abilene_cost_network.node[0].core_layer 	repo_int[0] 	1207352
scalar abilene_cost_network.node[0].content_store 	p_hit[0] 	0.044071156834378
scalar abilene_cost_network.node[0].content_store 	hits[0] 	8225
scalar abilene_cost_network.node[0].content_store 	misses[0] 	178405
scalar abilene_cost_network.node[0].content_store 	decision_yes[0] 	702
scalar abilene_cost_network.node[0].content_store 	decision_no[0] 	173665
scalar abilene_cost_network.node[0].content_store 	decision_ratio[0] 	0.0040259911565835
scalar abilene_cost_network.node[0].content_store 	cache_value[0] 	0.87566859527051
scalar abilene_cost_network.node[0].content_store 	correction_factor[0] 	0.0027225701061802
scalar abilene_cost_network.node[0].content_store 	kappa[0] 	1
scalar abilene_cost_network.node[1].core_layer 	interests[1] 	470334
scalar abilene_cost_network.node[1].core_layer 	data[1] 	432364
scalar abilene_cost_network.node[1].content_store 	p_hit[1] 	0.062055900700353
scalar abilene_cost_network.node[1].content_store 	hits[1] 	29187
scalar abilene_cost_network.node[1].content_store 	misses[1] 	441147
scalar abilene_cost_network.node[1].content_store 	decision_yes[1] 	2071
scalar abilene_cost_network.node[1].content_store 	decision_no[1] 	430293
scalar abilene_cost_network.node[1].content_store 	decision_ratio[1] 	0.0047899455088768
scalar abilene_cost_network.node[1].content_store 	cache_value[1] 	2.0843420271398
scalar abilene_cost_network.node[1].content_store 	correction_factor[1] 	0.0027225701061802
scalar abilene_cost_network.node[1].content_store 	kappa[1] 	1
scalar abilene_cost_network.node[2].core_layer 	interests[2] 	848531
scalar abilene_cost_network.node[2].core_layer 	data[2] 	760650
scalar abilene_cost_network.node[2].content_store 	p_hit[2] 	0.084583827815366
scalar abilene_cost_network.node[2].content_store 	hits[2] 	71772
scalar abilene_cost_network.node[2].content_store 	misses[2] 	776759
scalar abilene_cost_network.node[2].content_store 	decision_yes[2] 	3889
scalar abilene_cost_network.node[2].content_store 	decision_no[2] 	756761
scalar abilene_cost_network.node[2].content_store 	decision_ratio[2] 	0.0051127325313876
scalar abilene_cost_network.node[2].content_store 	cache_value[2] 	6.400247592833
scalar abilene_cost_network.node[2].content_store 	correction_factor[2] 	0.0027225701061802
scalar abilene_cost_network.node[2].content_store 	kappa[2] 	1
scalar abilene_cost_network.node[3].core_layer 	interests[3] 	754219
scalar abilene_cost_network.node[3].core_layer 	data[3] 	665356
scalar abilene_cost_network.node[3].content_store 	p_hit[3] 	0.1104188571224
scalar abilene_cost_network.node[3].content_store 	hits[3] 	83280
scalar abilene_cost_network.node[3].content_store 	misses[3] 	670939
scalar abilene_cost_network.node[3].content_store 	decision_yes[3] 	5310
scalar abilene_cost_network.node[3].content_store 	decision_no[3] 	660046
scalar abilene_cost_network.node[3].content_store 	decision_ratio[3] 	0.007980690036612
scalar abilene_cost_network.node[3].content_store 	cache_value[3] 	3.6771459578009
scalar abilene_cost_network.node[3].content_store 	correction_factor[3] 	0.0027225701061802
scalar abilene_cost_network.node[3].content_store 	kappa[3] 	1
scalar abilene_cost_network.node[4].core_layer 	interests[4] 	777841
scalar abilene_cost_network.node[4].core_layer 	repo_load[4] 	276730
scalar abilene_cost_network.node[4].core_layer 	data[4] 	279241
scalar abilene_cost_network.node[4].content_store 	p_hit[4] 	0.28304756370518
scalar abilene_cost_network.node[4].content_store 	hits[4] 	220166
scalar abilene_cost_network.node[4].content_store 	misses[4] 	557675
scalar abilene_cost_network.node[4].content_store 	decision_yes[4] 	8004
scalar abilene_cost_network.node[4].content_store 	decision_no[4] 	547967
scalar abilene_cost_network.node[4].content_store 	decision_ratio[4] 	0.014396434346396
scalar abilene_cost_network.node[4].content_store 	cache_value[4] 	17.688684457551
scalar abilene_cost_network.node[4].content_store 	correction_factor[4] 	0.0027225701061802
scalar abilene_cost_network.node[4].content_store 	kappa[4] 	1
scalar abilene_cost_network.node[5].core_layer 	interests[5] 	614797
scalar abilene_cost_network.node[5].core_layer 	repo_load[5] 	308554
scalar abilene_cost_network.node[5].core_layer 	data[5] 	155228
scalar abilene_cost_network.node[5].content_store 	p_hit[5] 	0.24179363269502
scalar abilene_cost_network.node[5].content_store 	hits[5] 	148654
scalar abilene_cost_network.node[5].content_store 	misses[5] 	466143
scalar abilene_cost_network.node[5].content_store 	decision_yes[5] 	2325
scalar abilene_cost_network.node[5].content_store 	decision_no[5] 	461457
scalar abilene_cost_network.node[5].content_store 	decision_ratio[5] 	0.0050131311693856
scalar abilene_cost_network.node[5].content_store 	cache_value[5] 	5.304848104411
scalar abilene_cost_network.node[5].content_store 	correction_factor[5] 	0.0027225701061802
scalar abilene_cost_network.node[5].content_store 	kappa[5] 	1
scalar abilene_cost_network.node[6].core_layer 	interests[6] 	388071
scalar abilene_cost_network.node[6].core_layer 	data[6] 	348950
scalar abilene_cost_network.node[6].content_store 	p_hit[6] 	0.088285391075344
scalar abilene_cost_network.node[6].content_store 	hits[6] 	34261
scalar abilene_cost_network.node[6].content_store 	misses[6] 	353810
scalar abilene_cost_network.node[6].content_store 	decision_yes[6] 	992
scalar abilene_cost_network.node[6].content_store 	decision_no[6] 	347958
scalar abilene_cost_network.node[6].content_store 	decision_ratio[6] 	0.002842814156756
scalar abilene_cost_network.node[6].content_store 	cache_value[6] 	1.7864045898704
scalar abilene_cost_network.node[6].content_store 	correction_factor[6] 	0.0027225701061802
scalar abilene_cost_network.node[6].content_store 	kappa[6] 	1
scalar abilene_cost_network.node[7].core_layer 	interests[7] 	435229
scalar abilene_cost_network.node[7].core_layer 	data[7] 	395306
scalar abilene_cost_network.node[7].content_store 	p_hit[7] 	0.080249707625181
scalar abilene_cost_network.node[7].content_store 	hits[7] 	34927
scalar abilene_cost_network.node[7].content_store 	misses[7] 	400302
scalar abilene_cost_network.node[7].content_store 	decision_yes[7] 	915
scalar abilene_cost_network.node[7].content_store 	decision_no[7] 	394391
scalar abilene_cost_network.node[7].content_store 	decision_ratio[7] 	0.0023146625652027
scalar abilene_cost_network.node[7].content_store 	cache_value[7] 	1.3230864801468
scalar abilene_cost_network.node[7].content_store 	correction_factor[7] 	0.0027225701061802
scalar abilene_cost_network.node[7].content_store 	kappa[7] 	1
scalar abilene_cost_network.node[8].core_layer 	interests[8] 	892405
scalar abilene_cost_network.node[8].core_layer 	repo_load[8] 	622068
scalar abilene_cost_network.node[8].core_layer 	data[8] 	227057
scalar abilene_cost_network.node[8].content_store 	p_hit[8] 	0.045823364952012
scalar abilene_cost_network.node[8].content_store 	hits[8] 	40893
scalar abilene_cost_network.node[8].content_store 	misses[8] 	851512
scalar abilene_cost_network.node[8].content_store 	decision_yes[8] 	1418
scalar abilene_cost_network.node[8].content_store 	decision_no[8] 	847707
scalar abilene_cost_network.node[8].content_store 	decision_ratio[8] 	0.0016699543647873
scalar abilene_cost_network.node[8].content_store 	cache_value[8] 	2.6307539291715
scalar abilene_cost_network.node[8].content_store 	correction_factor[8] 	0.0027225701061802
scalar abilene_cost_network.node[8].content_store 	kappa[8] 	1
scalar abilene_cost_network.node[9].core_layer 	interests[9] 	268320
scalar abilene_cost_network.node[9].core_layer 	data[9] 	247733
scalar abilene_cost_network.node[9].content_store 	p_hit[9] 	0.052426207513417
scalar abilene_cost_network.node[9].content_store 	hits[9] 	14067
scalar abilene_cost_network.node[9].content_store 	misses[9] 	254253
scalar abilene_cost_network.node[9].content_store 	decision_yes[9] 	673
scalar abilene_cost_network.node[9].content_store 	decision_no[9] 	247060
scalar abilene_cost_network.node[9].content_store 	decision_ratio[9] 	0.002716634441112
scalar abilene_cost_network.node[9].content_store 	cache_value[9] 	0.77992276566085
scalar abilene_cost_network.node[9].content_store 	correction_factor[9] 	0.0027225701061802
scalar abilene_cost_network.node[9].content_store 	kappa[9] 	1
scalar abilene_cost_network.node[10].core_layer 	interests[10] 	212760
scalar abilene_cost_network.node[10].core_layer 	data[10] 	181265
scalar abilene_cost_network.node[10].content_store 	p_hit[10] 	0.13242150780222
scalar abilene_cost_network.node[10].content_store 	hits[10] 	28174
scalar abilene_cost_network.node[10].content_store 	misses[10] 	184586
scalar abilene_cost_network.node[10].content_store 	decision_yes[10] 	665
scalar abilene_cost_network.node[10].content_store 	decision_no[10] 	180600
scalar abilene_cost_network.node[10].content_store 	decision_ratio[10] 	0.0036686619038424
scalar abilene_cost_network.node[10].content_store 	cache_value[10] 	1.0396833111816
scalar abilene_cost_network.node[10].content_store 	correction_factor[10] 	0.0027225701061802
scalar abilene_cost_network.node[10].content_store 	kappa[10] 	1
scalar abilene_cost_network.client[0] 	hdistance[0] 	4.0871061704235
scalar abilene_cost_network.client[0] 	downloads[0] 	175774
scalar abilene_cost_network.client[0] 	avg_time[0] 	0.023400365469
scalar abilene_cost_network.client[0] 	interests_sent[0] 	179812
scalar abilene_cost_network.client[1] 	hdistance[1] 	3.1399105409739
scalar abilene_cost_network.client[1] 	downloads[1] 	177735
scalar abilene_cost_network.client[1] 	avg_time[1] 	0.013291560052
scalar abilene_cost_network.client[1] 	interests_sent[1] 	179988
scalar abilene_cost_network.client[2] 	hdistance[2] 	2.2628766363621
scalar abilene_cost_network.client[2] 	downloads[2] 	178521
scalar abilene_cost_network.client[2] 	avg_time[2] 	0.008210167501
scalar abilene_cost_network.client[2] 	interests_sent[2] 	179767
scalar abilene_cost_network.client[3] 	hdistance[3] 	2.152526491913
scalar abilene_cost_network.client[3] 	downloads[3] 	179300
scalar abilene_cost_network.client[3] 	avg_time[3] 	0.007129104916
scalar abilene_cost_network.client[3] 	interests_sent[3] 	180771
scalar abilene_cost_network.client[4] 	hdistance[4] 	1.9616501609379
scalar abilene_cost_network.client[4] 	downloads[4] 	178019
scalar abilene_cost_network.client[4] 	avg_time[4] 	0.006327222459
scalar abilene_cost_network.client[4] 	interests_sent[4] 	179476
scalar abilene_cost_network.client[5] 	hdistance[5] 	1.9968432148744
scalar abilene_cost_network.client[5] 	downloads[5] 	178346
scalar abilene_cost_network.client[5] 	avg_time[5] 	0.007270105171
scalar abilene_cost_network.client[5] 	interests_sent[5] 	180306
scalar abilene_cost_network.client[6] 	hdistance[6] 	2.2540488830957
scalar abilene_cost_network.client[6] 	downloads[6] 	178753
scalar abilene_cost_network.client[6] 	avg_time[6] 	0.008328289817
scalar abilene_cost_network.client[6] 	interests_sent[6] 	180641
scalar abilene_cost_network.client[7] 	hdistance[7] 	2.143328034803
scalar abilene_cost_network.client[7] 	downloads[7] 	179295
scalar abilene_cost_network.client[7] 	avg_time[7] 	0.007354722699
scalar abilene_cost_network.client[7] 	interests_sent[7] 	180700
scalar abilene_cost_network.client[8] 	hdistance[8] 	2.2247539903272
scalar abilene_cost_network.client[8] 	downloads[8] 	179058
scalar abilene_cost_network.client[8] 	avg_time[8] 	0.008609795454
scalar abilene_cost_network.client[8] 	interests_sent[8] 	179880
scalar abilene_cost_network.client[9] 	hdistance[9] 	3.1228354458967
scalar abilene_cost_network.client[9] 	downloads[9] 	177115
scalar abilene_cost_network.client[9] 	avg_time[9] 	0.021524191253
scalar abilene_cost_network.client[9] 	interests_sent[9] 	180567
scalar abilene_cost_network.client[10] 	hdistance[10] 	3.6763188625979
scalar abilene_cost_network.client[10] 	downloads[10] 	176402
scalar abilene_cost_network.client[10] 	avg_time[10] 	0.020715144241
scalar abilene_cost_network.client[10] 	interests_sent[10] 	179715
