version 2
run General-7-20150224-18:06:56-13598
attr D costaware0.01
attr F nrr
attr R lru
attr a 1
attr configname General
attr csize 1e3
attr ctlg 1e5
attr datetime 20150224-18:06:56
attr experiment General
attr inifile omnetpp.ini
attr iterationvars "$rep=8, $net=abilene_cost, $lambda=100, $a=1, $ctlg=1e5, $F=nrr, $ttl=10, $D=costaware0.01, $R=lru, $csize=1e3, $window=60, $variance=0.05, $mytime=1800, $kappa=1, $priceratiovalue=10, $pricebits=0"
attr iterationvars2 "$rep=8, $net=abilene_cost, $lambda=100, $a=1, $ctlg=1e5, $F=nrr, $ttl=10, $D=costaware0.01, $R=lru, $csize=1e3, $window=60, $variance=0.05, $mytime=1800, $kappa=1, $priceratiovalue=10, $pricebits=0, $repetition=0"
attr kappa 1
attr lambda 100
attr measurement "$rep=8, $net=abilene_cost, $lambda=100, $a=1, $ctlg=1e5, $F=nrr, $ttl=10, $D=costaware0.01, $R=lru, $csize=1e3, $window=60, $variance=0.05, $mytime=1800, $kappa=1, $priceratiovalue=10, $pricebits=0"
attr mytime 1800
attr net abilene_cost
attr network networks.${net=abilene_cost}_network
attr pricebits 0
attr priceratiovalue 10
attr processid 13598
attr rep 8
attr repetition 0
attr replication #0
attr resultdir results
attr runnumber 7
attr seedset 8
attr ttl 10
attr variance 0.05
attr window 60

scalar . 	a 	1
scalar . 	csize 	1e3
scalar . 	ctlg 	1e5
scalar . 	kappa 	1
scalar . 	lambda 	100
scalar . 	mytime 	1800
scalar . 	pricebits 	0
scalar . 	priceratiovalue 	10
scalar . 	rep 	8
scalar . 	ttl 	10
scalar . 	variance 	0.05
scalar . 	window 	60
scalar abilene_cost_network.content_distribution 	repo-0 	4
scalar abilene_cost_network.content_distribution 	repo-1 	10
scalar abilene_cost_network.content_distribution 	repo-2 	6
scalar abilene_cost_network.content_distribution 	client-0 	2
scalar abilene_cost_network.content_distribution 	client-1 	8
scalar abilene_cost_network.content_distribution 	client-2 	4
scalar abilene_cost_network.content_distribution 	client-3 	9
scalar abilene_cost_network.content_distribution 	client-4 	5
scalar abilene_cost_network.content_distribution 	client-5 	1
scalar abilene_cost_network.content_distribution 	client-6 	7
scalar abilene_cost_network.content_distribution 	client-7 	3
scalar abilene_cost_network.content_distribution 	client-8 	6
scalar abilene_cost_network.content_distribution 	client-9 	0
scalar abilene_cost_network.content_distribution 	client-10 	10
scalar abilene_cost_network.content_distribution 	repo-0_card 	33476
scalar abilene_cost_network.content_distribution 	repo-0_price 	10
scalar abilene_cost_network.content_distribution 	repo-1_card 	33252
scalar abilene_cost_network.content_distribution 	repo-1_price 	0
scalar abilene_cost_network.content_distribution 	repo-2_card 	33272
scalar abilene_cost_network.content_distribution 	repo-2_price 	1
scalar abilene_cost_network.statistics 	repo_popularity[0] 	0.25452589511422
scalar abilene_cost_network.statistics 	repo_popularity[1] 	0.38201899300632
scalar abilene_cost_network.statistics 	repo_popularity[2] 	0.36345511187947
scalar abilene_cost_network.statistics 	stabilization_time 	265.7
scalar abilene_cost_network.statistics 	p_hit 	0.10092076215105
scalar abilene_cost_network.statistics 	interests 	547846.54545455
scalar abilene_cost_network.statistics 	data 	367677.90909091
scalar abilene_cost_network.statistics 	hdistance 	2.7886273741
scalar abilene_cost_network.statistics 	avg_time 	0.013607452616
scalar abilene_cost_network.statistics 	downloads 	1957523
scalar abilene_cost_network.statistics 	total_cost 	3067479
scalar abilene_cost_network.statistics 	total_replicas 	100000
scalar abilene_cost_network.statistics 	inner_hit 	0.33182854045649
scalar abilene_cost_network.statistics 	interests_sent 	1981853
scalar abilene_cost_network.node[0].core_layer 	interests[0] 	190287
scalar abilene_cost_network.node[0].core_layer 	data[0] 	175707
scalar abilene_cost_network.node[0].core_layer 	repo_int[0] 	1307961
scalar abilene_cost_network.node[0].content_store 	p_hit[0] 	0.058506361443504
scalar abilene_cost_network.node[0].content_store 	hits[0] 	11133
scalar abilene_cost_network.node[0].content_store 	misses[0] 	179154
scalar abilene_cost_network.node[0].content_store 	decision_yes[0] 	727
scalar abilene_cost_network.node[0].content_store 	decision_no[0] 	174980
scalar abilene_cost_network.node[0].content_store 	decision_ratio[0] 	0.0041375699317614
scalar abilene_cost_network.node[0].content_store 	cache_value[0] 	0.98461751961038
scalar abilene_cost_network.node[0].content_store 	correction_factor[0] 	0.0027225701061802
scalar abilene_cost_network.node[0].content_store 	kappa[0] 	1
scalar abilene_cost_network.node[1].core_layer 	interests[1] 	604602
scalar abilene_cost_network.node[1].core_layer 	data[1] 	565906
scalar abilene_cost_network.node[1].content_store 	p_hit[1] 	0.048316082315308
scalar abilene_cost_network.node[1].content_store 	hits[1] 	29212
scalar abilene_cost_network.node[1].content_store 	misses[1] 	575390
scalar abilene_cost_network.node[1].content_store 	decision_yes[1] 	1959
scalar abilene_cost_network.node[1].content_store 	decision_no[1] 	563947
scalar abilene_cost_network.node[1].content_store 	decision_ratio[1] 	0.0034617056542959
scalar abilene_cost_network.node[1].content_store 	cache_value[1] 	2.3810137731879
scalar abilene_cost_network.node[1].content_store 	correction_factor[1] 	0.0027225701061802
scalar abilene_cost_network.node[1].content_store 	kappa[1] 	1
scalar abilene_cost_network.node[2].core_layer 	interests[2] 	702910
scalar abilene_cost_network.node[2].core_layer 	data[2] 	643145
scalar abilene_cost_network.node[2].content_store 	p_hit[2] 	0.070027457284716
scalar abilene_cost_network.node[2].content_store 	hits[2] 	49223
scalar abilene_cost_network.node[2].content_store 	misses[2] 	653687
scalar abilene_cost_network.node[2].content_store 	decision_yes[2] 	3864
scalar abilene_cost_network.node[2].content_store 	decision_no[2] 	639281
scalar abilene_cost_network.node[2].content_store 	decision_ratio[2] 	0.0060079764283326
scalar abilene_cost_network.node[2].content_store 	cache_value[2] 	4.2963556564646
scalar abilene_cost_network.node[2].content_store 	correction_factor[2] 	0.0027225701061802
scalar abilene_cost_network.node[2].content_store 	kappa[2] 	1
scalar abilene_cost_network.node[3].core_layer 	interests[3] 	703159
scalar abilene_cost_network.node[3].core_layer 	data[3] 	647659
scalar abilene_cost_network.node[3].content_store 	p_hit[3] 	0.064676694744716
scalar abilene_cost_network.node[3].content_store 	hits[3] 	45478
scalar abilene_cost_network.node[3].content_store 	misses[3] 	657681
scalar abilene_cost_network.node[3].content_store 	decision_yes[3] 	5273
scalar abilene_cost_network.node[3].content_store 	decision_no[3] 	642386
scalar abilene_cost_network.node[3].content_store 	decision_ratio[3] 	0.0081416300862028
scalar abilene_cost_network.node[3].content_store 	cache_value[3] 	2.5219525351028
scalar abilene_cost_network.node[3].content_store 	correction_factor[3] 	0.0027225701061802
scalar abilene_cost_network.node[3].content_store 	kappa[3] 	1
scalar abilene_cost_network.node[4].core_layer 	interests[4] 	530149
scalar abilene_cost_network.node[4].core_layer 	repo_load[4] 	275922
scalar abilene_cost_network.node[4].core_layer 	data[4] 	201660
scalar abilene_cost_network.node[4].content_store 	p_hit[4] 	0.090553787708738
scalar abilene_cost_network.node[4].content_store 	hits[4] 	48007
scalar abilene_cost_network.node[4].content_store 	misses[4] 	482142
scalar abilene_cost_network.node[4].content_store 	decision_yes[4] 	7589
scalar abilene_cost_network.node[4].content_store 	decision_no[4] 	469993
scalar abilene_cost_network.node[4].content_store 	decision_ratio[4] 	0.015890464883517
scalar abilene_cost_network.node[4].content_store 	cache_value[4] 	6.737418408157
scalar abilene_cost_network.node[4].content_store 	correction_factor[4] 	0.0027225701061802
scalar abilene_cost_network.node[4].content_store 	kappa[4] 	1
scalar abilene_cost_network.node[5].core_layer 	interests[5] 	275926
scalar abilene_cost_network.node[5].core_layer 	data[5] 	238965
scalar abilene_cost_network.node[5].content_store 	p_hit[5] 	0.1257112414198
scalar abilene_cost_network.node[5].content_store 	hits[5] 	34687
scalar abilene_cost_network.node[5].content_store 	misses[5] 	241239
scalar abilene_cost_network.node[5].content_store 	decision_yes[5] 	1706
scalar abilene_cost_network.node[5].content_store 	decision_no[5] 	237259
scalar abilene_cost_network.node[5].content_store 	decision_ratio[5] 	0.0071391207917477
scalar abilene_cost_network.node[5].content_store 	cache_value[5] 	6.1621994190174
scalar abilene_cost_network.node[5].content_store 	correction_factor[5] 	0.0027225701061802
scalar abilene_cost_network.node[5].content_store 	kappa[5] 	1
scalar abilene_cost_network.node[6].core_layer 	interests[6] 	565756
scalar abilene_cost_network.node[6].core_layer 	repo_load[6] 	308259
scalar abilene_cost_network.node[6].core_layer 	data[6] 	116319
scalar abilene_cost_network.node[6].content_store 	p_hit[6] 	0.24654974936192
scalar abilene_cost_network.node[6].content_store 	hits[6] 	139487
scalar abilene_cost_network.node[6].content_store 	misses[6] 	426269
scalar abilene_cost_network.node[6].content_store 	decision_yes[6] 	1560
scalar abilene_cost_network.node[6].content_store 	decision_no[6] 	423018
scalar abilene_cost_network.node[6].content_store 	decision_ratio[6] 	0.0036742365360428
scalar abilene_cost_network.node[6].content_store 	cache_value[6] 	2.6415611025343
scalar abilene_cost_network.node[6].content_store 	correction_factor[6] 	0.0027225701061802
scalar abilene_cost_network.node[6].content_store 	kappa[6] 	1
scalar abilene_cost_network.node[7].core_layer 	interests[7] 	630709
scalar abilene_cost_network.node[7].core_layer 	data[7] 	467758
scalar abilene_cost_network.node[7].content_store 	p_hit[7] 	0.25084785535009
scalar abilene_cost_network.node[7].content_store 	hits[7] 	158212
scalar abilene_cost_network.node[7].content_store 	misses[7] 	472497
scalar abilene_cost_network.node[7].content_store 	decision_yes[7] 	1203
scalar abilene_cost_network.node[7].content_store 	decision_no[7] 	466555
scalar abilene_cost_network.node[7].content_store 	decision_ratio[7] 	0.0025718427049885
scalar abilene_cost_network.node[7].content_store 	cache_value[7] 	2.3137832720553
scalar abilene_cost_network.node[7].content_store 	correction_factor[7] 	0.0027225701061802
scalar abilene_cost_network.node[7].content_store 	kappa[7] 	1
scalar abilene_cost_network.node[8].core_layer 	interests[8] 	512663
scalar abilene_cost_network.node[8].core_layer 	data[8] 	439775
scalar abilene_cost_network.node[8].content_store 	p_hit[8] 	0.12594628440125
scalar abilene_cost_network.node[8].content_store 	hits[8] 	64568
scalar abilene_cost_network.node[8].content_store 	misses[8] 	448095
scalar abilene_cost_network.node[8].content_store 	decision_yes[8] 	1406
scalar abilene_cost_network.node[8].content_store 	decision_no[8] 	438369
scalar abilene_cost_network.node[8].content_store 	decision_ratio[8] 	0.0031970894207265
scalar abilene_cost_network.node[8].content_store 	cache_value[8] 	2.4955517319095
scalar abilene_cost_network.node[8].content_store 	correction_factor[8] 	0.0027225701061802
scalar abilene_cost_network.node[8].content_store 	kappa[8] 	1
scalar abilene_cost_network.node[9].core_layer 	interests[9] 	452889
scalar abilene_cost_network.node[9].core_layer 	data[9] 	431583
scalar abilene_cost_network.node[9].content_store 	p_hit[9] 	0.029771091812784
scalar abilene_cost_network.node[9].content_store 	hits[9] 	13483
scalar abilene_cost_network.node[9].content_store 	misses[9] 	439406
scalar abilene_cost_network.node[9].content_store 	decision_yes[9] 	750
scalar abilene_cost_network.node[9].content_store 	decision_no[9] 	430833
scalar abilene_cost_network.node[9].content_store 	decision_ratio[9] 	0.0017377885597904
scalar abilene_cost_network.node[9].content_store 	cache_value[9] 	0.83369774787282
scalar abilene_cost_network.node[9].content_store 	correction_factor[9] 	0.0027225701061802
scalar abilene_cost_network.node[9].content_store 	kappa[9] 	1
scalar abilene_cost_network.node[10].core_layer 	interests[10] 	857262
scalar abilene_cost_network.node[10].core_layer 	repo_load[10] 	723780
scalar abilene_cost_network.node[10].core_layer 	data[10] 	115980
scalar abilene_cost_network.node[10].content_store 	p_hit[10] 	0.017135951436084
scalar abilene_cost_network.node[10].content_store 	hits[10] 	14690
scalar abilene_cost_network.node[10].content_store 	misses[10] 	842572
scalar abilene_cost_network.node[10].content_store 	decision_yes[10] 	683
scalar abilene_cost_network.node[10].content_store 	decision_no[10] 	839077
scalar abilene_cost_network.node[10].content_store 	decision_ratio[10] 	0.0008133276174145
scalar abilene_cost_network.node[10].content_store 	cache_value[10] 	1.4866782431438
scalar abilene_cost_network.node[10].content_store 	correction_factor[10] 	0.0027225701061802
scalar abilene_cost_network.node[10].content_store 	kappa[10] 	1
scalar abilene_cost_network.client[0] 	hdistance[0] 	3.3763696971745
scalar abilene_cost_network.client[0] 	downloads[0] 	177594
scalar abilene_cost_network.client[0] 	avg_time[0] 	0.017999666178
scalar abilene_cost_network.client[0] 	interests_sent[0] 	181041
scalar abilene_cost_network.client[1] 	hdistance[1] 	2.8044410430711
scalar abilene_cost_network.client[1] 	downloads[1] 	177706
scalar abilene_cost_network.client[1] 	avg_time[1] 	0.012732960161
scalar abilene_cost_network.client[1] 	interests_sent[1] 	180088
scalar abilene_cost_network.client[2] 	hdistance[2] 	2.6726045052113
scalar abilene_cost_network.client[2] 	downloads[2] 	178460
scalar abilene_cost_network.client[2] 	avg_time[2] 	0.011996550437
scalar abilene_cost_network.client[2] 	interests_sent[2] 	180474
scalar abilene_cost_network.client[3] 	hdistance[3] 	2.6654083887686
scalar abilene_cost_network.client[3] 	downloads[3] 	178286
scalar abilene_cost_network.client[3] 	avg_time[3] 	0.011494119602
scalar abilene_cost_network.client[3] 	interests_sent[3] 	180051
scalar abilene_cost_network.client[4] 	hdistance[4] 	2.9331208042371
scalar abilene_cost_network.client[4] 	downloads[4] 	177858
scalar abilene_cost_network.client[4] 	avg_time[4] 	0.011557738125
scalar abilene_cost_network.client[4] 	interests_sent[4] 	180133
scalar abilene_cost_network.client[5] 	hdistance[5] 	3.1578539238714
scalar abilene_cost_network.client[5] 	downloads[5] 	177962
scalar abilene_cost_network.client[5] 	avg_time[5] 	0.013595189979
scalar abilene_cost_network.client[5] 	interests_sent[5] 	179953
scalar abilene_cost_network.client[6] 	hdistance[6] 	2.6934404960488
scalar abilene_cost_network.client[6] 	downloads[6] 	178047
scalar abilene_cost_network.client[6] 	avg_time[6] 	0.014020698739
scalar abilene_cost_network.client[6] 	interests_sent[6] 	179735
scalar abilene_cost_network.client[7] 	hdistance[7] 	2.5198126196312
scalar abilene_cost_network.client[7] 	downloads[7] 	178674
scalar abilene_cost_network.client[7] 	avg_time[7] 	0.012954797186
scalar abilene_cost_network.client[7] 	interests_sent[7] 	180087
scalar abilene_cost_network.client[8] 	hdistance[8] 	2.5379004176324
scalar abilene_cost_network.client[8] 	downloads[8] 	178626
scalar abilene_cost_network.client[8] 	avg_time[8] 	0.013494065993
scalar abilene_cost_network.client[8] 	interests_sent[8] 	180453
scalar abilene_cost_network.client[9] 	hdistance[9] 	2.6929939470593
scalar abilene_cost_network.client[9] 	downloads[9] 	177104
scalar abilene_cost_network.client[9] 	avg_time[9] 	0.015610507178
scalar abilene_cost_network.client[9] 	interests_sent[9] 	179842
scalar abilene_cost_network.client[10] 	hdistance[10] 	2.6209552723948
scalar abilene_cost_network.client[10] 	downloads[10] 	177206
scalar abilene_cost_network.client[10] 	avg_time[10] 	0.014225685202
scalar abilene_cost_network.client[10] 	interests_sent[10] 	179996
