version 2
run General-13-20150312-12:16:54-20501
attr D fix0.01
attr F spr
attr R lru
attr a 0.8
attr configname General
attr csize 1e3
attr ctlg 1e5
attr datetime 20150312-12:16:54
attr experiment General
attr inifile omnetpp.ini
attr iterationvars "$rep=24, $net=geant_cost, $lambda=100, $a=0.8, $ctlg=1e5, $F=spr, $ttl=10, $D=fix0.01, $R=lru, $csize=1e3, $window=60, $variance=0.05, $mytime=1800, $kappa=1, $priceratiovalue=10, $pricebits=0"
attr iterationvars2 "$rep=24, $net=geant_cost, $lambda=100, $a=0.8, $ctlg=1e5, $F=spr, $ttl=10, $D=fix0.01, $R=lru, $csize=1e3, $window=60, $variance=0.05, $mytime=1800, $kappa=1, $priceratiovalue=10, $pricebits=0, $repetition=0"
attr kappa 1
attr lambda 100
attr measurement "$rep=24, $net=geant_cost, $lambda=100, $a=0.8, $ctlg=1e5, $F=spr, $ttl=10, $D=fix0.01, $R=lru, $csize=1e3, $window=60, $variance=0.05, $mytime=1800, $kappa=1, $priceratiovalue=10, $pricebits=0"
attr mytime 1800
attr net geant_cost
attr network networks.${net=geant_cost}_network
attr pricebits 0
attr priceratiovalue 10
attr processid 20501
attr rep 24
attr repetition 0
attr replication #0
attr resultdir results
attr runnumber 13
attr seedset 24
attr ttl 10
attr variance 0.05
attr window 60

scalar . 	a 	0.8
scalar . 	csize 	1e3
scalar . 	ctlg 	1e5
scalar . 	kappa 	1
scalar . 	lambda 	100
scalar . 	mytime 	1800
scalar . 	pricebits 	0
scalar . 	priceratiovalue 	10
scalar . 	rep 	24
scalar . 	ttl 	10
scalar . 	variance 	0.05
scalar . 	window 	60
scalar geant_cost_network.content_distribution 	repo-0 	18
scalar geant_cost_network.content_distribution 	repo-1 	6
scalar geant_cost_network.content_distribution 	repo-2 	9
scalar geant_cost_network.content_distribution 	client-0 	18
scalar geant_cost_network.content_distribution 	client-1 	14
scalar geant_cost_network.content_distribution 	client-2 	10
scalar geant_cost_network.content_distribution 	client-3 	16
scalar geant_cost_network.content_distribution 	client-4 	8
scalar geant_cost_network.content_distribution 	client-5 	3
scalar geant_cost_network.content_distribution 	client-6 	1
scalar geant_cost_network.content_distribution 	client-7 	6
scalar geant_cost_network.content_distribution 	client-8 	7
scalar geant_cost_network.content_distribution 	client-9 	4
scalar geant_cost_network.content_distribution 	client-10 	21
scalar geant_cost_network.content_distribution 	client-11 	20
scalar geant_cost_network.content_distribution 	client-12 	11
scalar geant_cost_network.content_distribution 	client-13 	9
scalar geant_cost_network.content_distribution 	client-14 	15
scalar geant_cost_network.content_distribution 	client-15 	12
scalar geant_cost_network.content_distribution 	client-16 	17
scalar geant_cost_network.content_distribution 	client-17 	19
scalar geant_cost_network.content_distribution 	client-18 	13
scalar geant_cost_network.content_distribution 	client-19 	5
scalar geant_cost_network.content_distribution 	client-20 	0
scalar geant_cost_network.content_distribution 	client-21 	2
scalar geant_cost_network.content_distribution 	repo-0_card 	33312
scalar geant_cost_network.content_distribution 	repo-0_price 	0
scalar geant_cost_network.content_distribution 	repo-1_card 	33062
scalar geant_cost_network.content_distribution 	repo-1_price 	1
scalar geant_cost_network.content_distribution 	repo-2_card 	33626
scalar geant_cost_network.content_distribution 	repo-2_price 	10
scalar geant_cost_network.statistics 	repo_popularity[0] 	0.35316438304641
scalar geant_cost_network.statistics 	repo_popularity[1] 	0.31672556317202
scalar geant_cost_network.statistics 	repo_popularity[2] 	0.33011005378157
scalar geant_cost_network.statistics 	stabilization_time 	113.1
scalar geant_cost_network.statistics 	p_hit 	0.050492954898642
scalar geant_cost_network.statistics 	interests 	590110.22727273
scalar geant_cost_network.statistics 	data 	410048.63636364
scalar geant_cost_network.statistics 	hdistance 	3.1129698644479
scalar geant_cost_network.statistics 	avg_time 	0.014329318443
scalar geant_cost_network.statistics 	downloads 	3960319
scalar geant_cost_network.statistics 	total_cost 	12030972
scalar geant_cost_network.statistics 	total_replicas 	100000
scalar geant_cost_network.statistics 	inner_hit 	0.16605505768601
scalar geant_cost_network.statistics 	interests_sent 	3961371
scalar geant_cost_network.node[0].core_layer 	interests[0] 	179692
scalar geant_cost_network.node[0].core_layer 	data[0] 	161579
scalar geant_cost_network.node[0].core_layer 	repo_int[0] 	3302688
scalar geant_cost_network.node[0].content_store 	p_hit[0] 	0.099998886984396
scalar geant_cost_network.node[0].content_store 	hits[0] 	17969
scalar geant_cost_network.node[0].content_store 	misses[0] 	161723
scalar geant_cost_network.node[0].content_store 	decision_yes[0] 	1608
scalar geant_cost_network.node[0].content_store 	decision_no[0] 	159971
scalar geant_cost_network.node[0].content_store 	decision_ratio[0] 	0.0099517882893198
scalar geant_cost_network.node[0].content_store 	cache_value[0] 	1.1961946032592
scalar geant_cost_network.node[0].content_store 	average_price_of_cache[0] 	1.7391304347826
scalar geant_cost_network.node[1].core_layer 	interests[1] 	341142
scalar geant_cost_network.node[1].core_layer 	data[1] 	319010
scalar geant_cost_network.node[1].content_store 	p_hit[1] 	0.064530312890233
scalar geant_cost_network.node[1].content_store 	hits[1] 	22014
scalar geant_cost_network.node[1].content_store 	misses[1] 	319128
scalar geant_cost_network.node[1].content_store 	decision_yes[1] 	3285
scalar geant_cost_network.node[1].content_store 	decision_no[1] 	315725
scalar geant_cost_network.node[1].content_store 	decision_ratio[1] 	0.010297482837529
scalar geant_cost_network.node[1].content_store 	cache_value[1] 	3.655851001768
scalar geant_cost_network.node[1].content_store 	average_price_of_cache[1] 	1.6521739130435
scalar geant_cost_network.node[2].core_layer 	interests[2] 	180346
scalar geant_cost_network.node[2].core_layer 	data[2] 	161695
scalar geant_cost_network.node[2].content_store 	p_hit[2] 	0.10322934803101
scalar geant_cost_network.node[2].content_store 	hits[2] 	18617
scalar geant_cost_network.node[2].content_store 	misses[2] 	161729
scalar geant_cost_network.node[2].content_store 	decision_yes[2] 	1620
scalar geant_cost_network.node[2].content_store 	decision_no[2] 	160075
scalar geant_cost_network.node[2].content_store 	decision_ratio[2] 	0.010018862673552
scalar geant_cost_network.node[2].content_store 	cache_value[2] 	1.0171818201539
scalar geant_cost_network.node[2].content_store 	average_price_of_cache[2] 	1.695652173913
scalar geant_cost_network.node[3].core_layer 	interests[3] 	990305
scalar geant_cost_network.node[3].core_layer 	data[3] 	957549
scalar geant_cost_network.node[3].content_store 	p_hit[3] 	0.032748496675267
scalar geant_cost_network.node[3].content_store 	hits[3] 	32431
scalar geant_cost_network.node[3].content_store 	misses[3] 	957874
scalar geant_cost_network.node[3].content_store 	decision_yes[3] 	9633
scalar geant_cost_network.node[3].content_store 	decision_no[3] 	947916
scalar geant_cost_network.node[3].content_store 	decision_ratio[3] 	0.01006005958964
scalar geant_cost_network.node[3].content_store 	cache_value[3] 	0.36013202798991
scalar geant_cost_network.node[3].content_store 	average_price_of_cache[3] 	1.8478260869565
scalar geant_cost_network.node[4].core_layer 	interests[4] 	1051888
scalar geant_cost_network.node[4].core_layer 	data[4] 	1002266
scalar geant_cost_network.node[4].content_store 	p_hit[4] 	0.046780645848227
scalar geant_cost_network.node[4].content_store 	hits[4] 	49208
scalar geant_cost_network.node[4].content_store 	misses[4] 	1002680
scalar geant_cost_network.node[4].content_store 	decision_yes[4] 	9965
scalar geant_cost_network.node[4].content_store 	decision_no[4] 	992301
scalar geant_cost_network.node[4].content_store 	decision_ratio[4] 	0.0099424703621593
scalar geant_cost_network.node[4].content_store 	cache_value[4] 	0.27102046500646
scalar geant_cost_network.node[4].content_store 	average_price_of_cache[4] 	0.91304347826087
scalar geant_cost_network.node[5].core_layer 	interests[5] 	959540
scalar geant_cost_network.node[5].core_layer 	data[5] 	918759
scalar geant_cost_network.node[5].content_store 	p_hit[5] 	0.042142068074286
scalar geant_cost_network.node[5].content_store 	hits[5] 	40437
scalar geant_cost_network.node[5].content_store 	misses[5] 	919103
scalar geant_cost_network.node[5].content_store 	decision_yes[5] 	9102
scalar geant_cost_network.node[5].content_store 	decision_no[5] 	909657
scalar geant_cost_network.node[5].content_store 	decision_ratio[5] 	0.0099068417288974
scalar geant_cost_network.node[5].content_store 	cache_value[5] 	0.61478295836955
scalar geant_cost_network.node[5].content_store 	average_price_of_cache[5] 	1.1739130434783
scalar geant_cost_network.node[6].core_layer 	interests[6] 	1249252
scalar geant_cost_network.node[6].core_layer 	repo_load[6] 	1090672
scalar geant_cost_network.node[6].core_layer 	data[6] 	117082
scalar geant_cost_network.node[6].content_store 	p_hit[6] 	0.03319346296824
scalar geant_cost_network.node[6].content_store 	hits[6] 	41467
scalar geant_cost_network.node[6].content_store 	misses[6] 	1207785
scalar geant_cost_network.node[6].content_store 	decision_yes[6] 	12058
scalar geant_cost_network.node[6].content_store 	decision_no[6] 	1195696
scalar geant_cost_network.node[6].content_store 	decision_ratio[6] 	0.0099838212086236
scalar geant_cost_network.node[6].content_store 	cache_value[6] 	0.85082198573852
scalar geant_cost_network.node[6].content_store 	average_price_of_cache[6] 	1.1304347826087
scalar geant_cost_network.node[7].core_layer 	interests[7] 	843630
scalar geant_cost_network.node[7].core_layer 	data[7] 	802161
scalar geant_cost_network.node[7].content_store 	p_hit[7] 	0.048993041973377
scalar geant_cost_network.node[7].content_store 	hits[7] 	41332
scalar geant_cost_network.node[7].content_store 	misses[7] 	802298
scalar geant_cost_network.node[7].content_store 	decision_yes[7] 	7986
scalar geant_cost_network.node[7].content_store 	decision_no[7] 	794175
scalar geant_cost_network.node[7].content_store 	decision_ratio[7] 	0.009955607415469
scalar geant_cost_network.node[7].content_store 	cache_value[7] 	1.5999711739593
scalar geant_cost_network.node[7].content_store 	average_price_of_cache[7] 	2.4130434782609
scalar geant_cost_network.node[8].core_layer 	interests[8] 	659279
scalar geant_cost_network.node[8].core_layer 	data[8] 	627052
scalar geant_cost_network.node[8].content_store 	p_hit[8] 	0.048842750944592
scalar geant_cost_network.node[8].content_store 	hits[8] 	32201
scalar geant_cost_network.node[8].content_store 	misses[8] 	627078
scalar geant_cost_network.node[8].content_store 	decision_yes[8] 	6413
scalar geant_cost_network.node[8].content_store 	decision_no[8] 	620639
scalar geant_cost_network.node[8].content_store 	decision_ratio[8] 	0.01022722198478
scalar geant_cost_network.node[8].content_store 	cache_value[8] 	7.1512790782887
scalar geant_cost_network.node[8].content_store 	average_price_of_cache[8] 	6.8478260869565
scalar geant_cost_network.node[9].core_layer 	interests[9] 	1364928
scalar geant_cost_network.node[9].core_layer 	repo_load[9] 	1094030
scalar geant_cost_network.node[9].core_layer 	data[9] 	223352
scalar geant_cost_network.node[9].content_store 	p_hit[9] 	0.034791578749941
scalar geant_cost_network.node[9].content_store 	hits[9] 	47488
scalar geant_cost_network.node[9].content_store 	misses[9] 	1317440
scalar geant_cost_network.node[9].content_store 	decision_yes[9] 	13251
scalar geant_cost_network.node[9].content_store 	decision_no[9] 	1304131
scalar geant_cost_network.node[9].content_store 	decision_ratio[9] 	0.010058585892323
scalar geant_cost_network.node[9].content_store 	cache_value[9] 	12.161338060237
scalar geant_cost_network.node[9].content_store 	average_price_of_cache[9] 	7.8478260869565
scalar geant_cost_network.node[10].core_layer 	interests[10] 	233749
scalar geant_cost_network.node[10].core_layer 	data[10] 	213842
scalar geant_cost_network.node[10].content_store 	p_hit[10] 	0.085065604558736
scalar geant_cost_network.node[10].content_store 	hits[10] 	19884
scalar geant_cost_network.node[10].content_store 	misses[10] 	213865
scalar geant_cost_network.node[10].content_store 	decision_yes[10] 	2218
scalar geant_cost_network.node[10].content_store 	decision_no[10] 	211624
scalar geant_cost_network.node[10].content_store 	decision_ratio[10] 	0.010372143919342
scalar geant_cost_network.node[10].content_store 	cache_value[10] 	9.9712631864432
scalar geant_cost_network.node[10].content_store 	average_price_of_cache[10] 	3.6086956521739
scalar geant_cost_network.node[11].core_layer 	interests[11] 	180354
scalar geant_cost_network.node[11].core_layer 	data[11] 	161487
scalar geant_cost_network.node[11].content_store 	p_hit[11] 	0.10450003881256
scalar geant_cost_network.node[11].content_store 	hits[11] 	18847
scalar geant_cost_network.node[11].content_store 	misses[11] 	161507
scalar geant_cost_network.node[11].content_store 	decision_yes[11] 	1594
scalar geant_cost_network.node[11].content_store 	decision_no[11] 	159893
scalar geant_cost_network.node[11].content_store 	decision_ratio[11] 	0.0098707635908773
scalar geant_cost_network.node[11].content_store 	cache_value[11] 	5.6082128052076
scalar geant_cost_network.node[11].content_store 	average_price_of_cache[11] 	1.3260869565217
scalar geant_cost_network.node[12].core_layer 	interests[12] 	926943
scalar geant_cost_network.node[12].core_layer 	data[12] 	889880
scalar geant_cost_network.node[12].content_store 	p_hit[12] 	0.039810430630578
scalar geant_cost_network.node[12].content_store 	hits[12] 	36902
scalar geant_cost_network.node[12].content_store 	misses[12] 	890041
scalar geant_cost_network.node[12].content_store 	decision_yes[12] 	8928
scalar geant_cost_network.node[12].content_store 	decision_no[12] 	880952
scalar geant_cost_network.node[12].content_store 	decision_ratio[12] 	0.010032813413044
scalar geant_cost_network.node[12].content_store 	cache_value[12] 	10.263489471055
scalar geant_cost_network.node[12].content_store 	average_price_of_cache[12] 	5.0434782608696
scalar geant_cost_network.node[13].core_layer 	interests[13] 	290491
scalar geant_cost_network.node[13].core_layer 	data[13] 	264538
scalar geant_cost_network.node[13].content_store 	p_hit[13] 	0.088498438850085
scalar geant_cost_network.node[13].content_store 	hits[13] 	25708
scalar geant_cost_network.node[13].content_store 	misses[13] 	264783
scalar geant_cost_network.node[13].content_store 	decision_yes[13] 	2606
scalar geant_cost_network.node[13].content_store 	decision_no[13] 	261932
scalar geant_cost_network.node[13].content_store 	decision_ratio[13] 	0.0098511366986974
scalar geant_cost_network.node[13].content_store 	cache_value[13] 	4.4210635421576
scalar geant_cost_network.node[13].content_store 	average_price_of_cache[13] 	4.5
scalar geant_cost_network.node[14].core_layer 	interests[14] 	781607
scalar geant_cost_network.node[14].core_layer 	data[14] 	742804
scalar geant_cost_network.node[14].content_store 	p_hit[14] 	0.048740607492
scalar geant_cost_network.node[14].content_store 	hits[14] 	38096
scalar geant_cost_network.node[14].content_store 	misses[14] 	743511
scalar geant_cost_network.node[14].content_store 	decision_yes[14] 	7615
scalar geant_cost_network.node[14].content_store 	decision_no[14] 	735189
scalar geant_cost_network.node[14].content_store 	decision_ratio[14] 	0.010251694928945
scalar geant_cost_network.node[14].content_store 	cache_value[14] 	0.082358961960605
scalar geant_cost_network.node[14].content_store 	average_price_of_cache[14] 	1.1086956521739
scalar geant_cost_network.node[15].core_layer 	interests[15] 	234230
scalar geant_cost_network.node[15].core_layer 	data[15] 	213392
scalar geant_cost_network.node[15].content_store 	p_hit[15] 	0.088844298339239
scalar geant_cost_network.node[15].content_store 	hits[15] 	20810
scalar geant_cost_network.node[15].content_store 	misses[15] 	213420
scalar geant_cost_network.node[15].content_store 	decision_yes[15] 	2087
scalar geant_cost_network.node[15].content_store 	decision_no[15] 	211305
scalar geant_cost_network.node[15].content_store 	decision_ratio[15] 	0.0097801229661843
scalar geant_cost_network.node[15].content_store 	cache_value[15] 	4.2229743546544
scalar geant_cost_network.node[15].content_store 	average_price_of_cache[15] 	4.2173913043478
scalar geant_cost_network.node[16].core_layer 	interests[16] 	181234
scalar geant_cost_network.node[16].core_layer 	data[16] 	162344
scalar geant_cost_network.node[16].content_store 	p_hit[16] 	0.10373881280554
scalar geant_cost_network.node[16].content_store 	hits[16] 	18801
scalar geant_cost_network.node[16].content_store 	misses[16] 	162433
scalar geant_cost_network.node[16].content_store 	decision_yes[16] 	1608
scalar geant_cost_network.node[16].content_store 	decision_no[16] 	160736
scalar geant_cost_network.node[16].content_store 	decision_ratio[16] 	0.0099048933129651
scalar geant_cost_network.node[16].content_store 	cache_value[16] 	0.13465186399764
scalar geant_cost_network.node[16].content_store 	average_price_of_cache[16] 	1.1086956521739
scalar geant_cost_network.node[17].core_layer 	interests[17] 	235533
scalar geant_cost_network.node[17].core_layer 	data[17] 	214619
scalar geant_cost_network.node[17].content_store 	p_hit[17] 	0.088633015331185
scalar geant_cost_network.node[17].content_store 	hits[17] 	20876
scalar geant_cost_network.node[17].content_store 	misses[17] 	214657
scalar geant_cost_network.node[17].content_store 	decision_yes[17] 	2154
scalar geant_cost_network.node[17].content_store 	decision_no[17] 	212465
scalar geant_cost_network.node[17].content_store 	decision_ratio[17] 	0.010036390067981
scalar geant_cost_network.node[17].content_store 	cache_value[17] 	0.03231992376924
scalar geant_cost_network.node[17].content_store 	average_price_of_cache[17] 	1.4347826086957
scalar geant_cost_network.node[18].core_layer 	interests[18] 	1502606
scalar geant_cost_network.node[18].core_layer 	repo_load[18] 	1117986
scalar geant_cost_network.node[18].core_layer 	data[18] 	329465
scalar geant_cost_network.node[18].content_store 	p_hit[18] 	0.036613723091749
scalar geant_cost_network.node[18].content_store 	hits[18] 	55016
scalar geant_cost_network.node[18].content_store 	misses[18] 	1447590
scalar geant_cost_network.node[18].content_store 	decision_yes[18] 	14235
scalar geant_cost_network.node[18].content_store 	decision_no[18] 	1433216
scalar geant_cost_network.node[18].content_store 	decision_ratio[18] 	0.0098345298044632
scalar geant_cost_network.node[18].content_store 	cache_value[18] 	0.044158539349019
scalar geant_cost_network.node[18].content_store 	average_price_of_cache[18] 	0.26086956521739
scalar geant_cost_network.node[19].core_layer 	interests[19] 	179953
scalar geant_cost_network.node[19].core_layer 	data[19] 	162242
scalar geant_cost_network.node[19].content_store 	p_hit[19] 	0.09832567392597
scalar geant_cost_network.node[19].content_store 	hits[19] 	17694
scalar geant_cost_network.node[19].content_store 	misses[19] 	162259
scalar geant_cost_network.node[19].content_store 	decision_yes[19] 	1648
scalar geant_cost_network.node[19].content_store 	decision_no[19] 	160594
scalar geant_cost_network.node[19].content_store 	decision_ratio[19] 	0.010157665709249
scalar geant_cost_network.node[19].content_store 	cache_value[19] 	0.11722601768666
scalar geant_cost_network.node[19].content_store 	average_price_of_cache[19] 	1.2391304347826
scalar geant_cost_network.node[20].core_layer 	interests[20] 	180127
scalar geant_cost_network.node[20].core_layer 	data[20] 	161094
scalar geant_cost_network.node[20].content_store 	p_hit[20] 	0.10555330405769
scalar geant_cost_network.node[20].content_store 	hits[20] 	19013
scalar geant_cost_network.node[20].content_store 	misses[20] 	161114
scalar geant_cost_network.node[20].content_store 	decision_yes[20] 	1596
scalar geant_cost_network.node[20].content_store 	decision_no[20] 	159498
scalar geant_cost_network.node[20].content_store 	decision_ratio[20] 	0.0099072591157957
scalar geant_cost_network.node[20].content_store 	cache_value[20] 	1.0024710497922
scalar geant_cost_network.node[20].content_store 	average_price_of_cache[20] 	2.0652173913043
scalar geant_cost_network.node[21].core_layer 	interests[21] 	235596
scalar geant_cost_network.node[21].core_layer 	data[21] 	214858
scalar geant_cost_network.node[21].content_store 	p_hit[21] 	0.08790471824649
scalar geant_cost_network.node[21].content_store 	hits[21] 	20710
scalar geant_cost_network.node[21].content_store 	misses[21] 	214886
scalar geant_cost_network.node[21].content_store 	decision_yes[21] 	2137
scalar geant_cost_network.node[21].content_store 	decision_no[21] 	212721
scalar geant_cost_network.node[21].content_store 	decision_ratio[21] 	0.0099461039384151
scalar geant_cost_network.node[21].content_store 	cache_value[21] 	0.083978117365883
scalar geant_cost_network.node[21].content_store 	average_price_of_cache[21] 	1.0434782608696
scalar geant_cost_network.client[0] 	hdistance[0] 	3.9954162675162
scalar geant_cost_network.client[0] 	downloads[0] 	179548
scalar geant_cost_network.client[0] 	avg_time[0] 	0.052300165245
scalar geant_cost_network.client[0] 	interests_sent[0] 	179692
scalar geant_cost_network.client[1] 	hdistance[1] 	3.1698850906187
scalar geant_cost_network.client[1] 	downloads[1] 	180316
scalar geant_cost_network.client[1] 	avg_time[1] 	0.011795689179
scalar geant_cost_network.client[1] 	interests_sent[1] 	180360
scalar geant_cost_network.client[2] 	hdistance[2] 	3.4487998580239
scalar geant_cost_network.client[2] 	downloads[2] 	180312
scalar geant_cost_network.client[2] 	avg_time[2] 	0.01638495712
scalar geant_cost_network.client[2] 	interests_sent[2] 	180346
scalar geant_cost_network.client[3] 	hdistance[3] 	2.6197143095815
scalar geant_cost_network.client[3] 	downloads[3] 	179565
scalar geant_cost_network.client[3] 	avg_time[3] 	0.006695160809
scalar geant_cost_network.client[3] 	interests_sent[3] 	179585
scalar geant_cost_network.client[4] 	hdistance[4] 	2.6415533096907
scalar geant_cost_network.client[4] 	downloads[4] 	180183
scalar geant_cost_network.client[4] 	avg_time[4] 	0.004856841771
scalar geant_cost_network.client[4] 	interests_sent[4] 	180214
scalar geant_cost_network.client[5] 	hdistance[5] 	2.6931708970107
scalar geant_cost_network.client[5] 	downloads[5] 	180009
scalar geant_cost_network.client[5] 	avg_time[5] 	0.008605573459
scalar geant_cost_network.client[5] 	interests_sent[5] 	180092
scalar geant_cost_network.client[6] 	hdistance[6] 	2.6823650299934
scalar geant_cost_network.client[6] 	downloads[6] 	180040
scalar geant_cost_network.client[6] 	avg_time[6] 	0.005412926671
scalar geant_cost_network.client[6] 	interests_sent[6] 	180071
scalar geant_cost_network.client[7] 	hdistance[7] 	2.3337258023504
scalar geant_cost_network.client[7] 	downloads[7] 	180906
scalar geant_cost_network.client[7] 	avg_time[7] 	0.004229404618
scalar geant_cost_network.client[7] 	interests_sent[7] 	180925
scalar geant_cost_network.client[8] 	hdistance[8] 	2.6544856416051
scalar geant_cost_network.client[8] 	downloads[8] 	179651
scalar geant_cost_network.client[8] 	avg_time[8] 	0.004802727884
scalar geant_cost_network.client[8] 	interests_sent[8] 	179662
scalar geant_cost_network.client[9] 	hdistance[9] 	2.9969263552487
scalar geant_cost_network.client[9] 	downloads[9] 	179266
scalar geant_cost_network.client[9] 	avg_time[9] 	0.005180887322
scalar geant_cost_network.client[9] 	interests_sent[9] 	179288
scalar geant_cost_network.client[10] 	hdistance[10] 	3.7985378148455
scalar geant_cost_network.client[10] 	downloads[10] 	179731
scalar geant_cost_network.client[10] 	avg_time[10] 	0.006836263606
scalar geant_cost_network.client[10] 	interests_sent[10] 	179751
scalar geant_cost_network.client[11] 	hdistance[11] 	3.7462042654186
scalar geant_cost_network.client[11] 	downloads[11] 	180334
scalar geant_cost_network.client[11] 	avg_time[11] 	0.008701479579
scalar geant_cost_network.client[11] 	interests_sent[11] 	180354
scalar geant_cost_network.client[12] 	hdistance[12] 	2.9352845149254
scalar geant_cost_network.client[12] 	downloads[12] 	180096
scalar geant_cost_network.client[12] 	avg_time[12] 	0.007415877008
scalar geant_cost_network.client[12] 	interests_sent[12] 	180127
scalar geant_cost_network.client[13] 	hdistance[13] 	2.8752565336121
scalar geant_cost_network.client[13] 	downloads[13] 	179801
scalar geant_cost_network.client[13] 	avg_time[13] 	0.041261175547
scalar geant_cost_network.client[13] 	interests_sent[13] 	179946
scalar geant_cost_network.client[14] 	hdistance[14] 	2.5919655474811
scalar geant_cost_network.client[14] 	downloads[14] 	179029
scalar geant_cost_network.client[14] 	avg_time[14] 	0.030082035658
scalar geant_cost_network.client[14] 	interests_sent[14] 	179191
scalar geant_cost_network.client[15] 	hdistance[15] 	2.8546799263188
scalar geant_cost_network.client[15] 	downloads[15] 	179693
scalar geant_cost_network.client[15] 	avg_time[15] 	0.010690616622
scalar geant_cost_network.client[15] 	interests_sent[15] 	179716
scalar geant_cost_network.client[16] 	hdistance[16] 	3.4285296309586
scalar geant_cost_network.client[16] 	downloads[16] 	181145
scalar geant_cost_network.client[16] 	avg_time[16] 	0.038610616701
scalar geant_cost_network.client[16] 	interests_sent[16] 	181234
scalar geant_cost_network.client[17] 	hdistance[17] 	3.1487375439339
scalar geant_cost_network.client[17] 	downloads[17] 	179531
scalar geant_cost_network.client[17] 	avg_time[17] 	0.013214351529
scalar geant_cost_network.client[17] 	interests_sent[17] 	179557
scalar geant_cost_network.client[18] 	hdistance[18] 	2.9438608918946
scalar geant_cost_network.client[18] 	downloads[18] 	180694
scalar geant_cost_network.client[18] 	avg_time[18] 	0.008363229115
scalar geant_cost_network.client[18] 	interests_sent[18] 	180735
scalar geant_cost_network.client[19] 	hdistance[19] 	3.7476213764894
scalar geant_cost_network.client[19] 	downloads[19] 	179936
scalar geant_cost_network.client[19] 	avg_time[19] 	0.009810339378
scalar geant_cost_network.client[19] 	interests_sent[19] 	179953
scalar geant_cost_network.client[20] 	hdistance[20] 	3.743086054401
scalar geant_cost_network.client[20] 	downloads[20] 	180107
scalar geant_cost_network.client[20] 	avg_time[20] 	0.00963885909
scalar geant_cost_network.client[20] 	interests_sent[20] 	180127
scalar geant_cost_network.client[21] 	hdistance[21] 	3.4355303559354
scalar geant_cost_network.client[21] 	downloads[21] 	180426
scalar geant_cost_network.client[21] 	avg_time[21] 	0.010355827847
scalar geant_cost_network.client[21] 	interests_sent[21] 	180445
