version 2
run General-18-20141007-11:55:20-22108
attr D fix0.005
attr F nrr
attr R lru
attr a 1
attr configname General
attr csize 1e3
attr ctlg 1e5
attr datetime 20141007-11:55:20
attr experiment General
attr inifile omnetpp.ini
attr iterationvars "$net=abilene_cost, $rep=3, $priceratiovalue=10, $weights=0.333_0.333_0.334, $lambda=100, $a=1, $ctlg=1e5, $F=nrr, $ttl=10, $D=fix0.005, $xi=1, $R=lru, $csize=1e3, $pricebits=0, $window=60, $variance=0.05, $mytime=1800"
attr iterationvars2 "$net=abilene_cost, $rep=3, $priceratiovalue=10, $weights=0.333_0.333_0.334, $lambda=100, $a=1, $ctlg=1e5, $F=nrr, $ttl=10, $D=fix0.005, $xi=1, $R=lru, $csize=1e3, $pricebits=0, $window=60, $variance=0.05, $mytime=1800, $repetition=0"
attr lambda 100
attr measurement "$net=abilene_cost, $rep=3, $priceratiovalue=10, $weights=0.333_0.333_0.334, $lambda=100, $a=1, $ctlg=1e5, $F=nrr, $ttl=10, $D=fix0.005, $xi=1, $R=lru, $csize=1e3, $pricebits=0, $window=60, $variance=0.05, $mytime=1800"
attr mytime 1800
attr net abilene_cost
attr network networks.${net=abilene_cost,geant_cost}_network
attr pricebits 0
attr priceratiovalue 10
attr processid 22108
attr rep 3
attr repetition 0
attr replication #0
attr resultdir results
attr runnumber 18
attr seedset 3
attr ttl 10
attr variance 0.05
attr weights 0.333_0.333_0.334
attr window 60
attr xi 1

scalar . 	a 	1
scalar . 	csize 	1e3
scalar . 	ctlg 	1e5
scalar . 	lambda 	100
scalar . 	mytime 	1800
scalar . 	pricebits 	0
scalar . 	priceratiovalue 	10
scalar . 	rep 	3
scalar . 	ttl 	10
scalar . 	variance 	0.05
scalar . 	window 	60
scalar . 	xi 	1
scalar abilene_cost_network.content_distribution 	repo-0 	9
scalar abilene_cost_network.content_distribution 	repo-1 	4
scalar abilene_cost_network.content_distribution 	repo-2 	0
scalar abilene_cost_network.content_distribution 	client-0 	9
scalar abilene_cost_network.content_distribution 	client-1 	0
scalar abilene_cost_network.content_distribution 	client-2 	1
scalar abilene_cost_network.content_distribution 	repo-0_card 	33498
scalar abilene_cost_network.content_distribution 	repo-0_price 	0
scalar abilene_cost_network.content_distribution 	repo-1_card 	33168
scalar abilene_cost_network.content_distribution 	repo-1_price 	10
scalar abilene_cost_network.content_distribution 	repo-2_card 	33334
scalar abilene_cost_network.content_distribution 	repo-2_price 	1
scalar abilene_cost_network.statistics 	repo_popularity[0] 	0.34820484875244
scalar abilene_cost_network.statistics 	repo_popularity[1] 	0.25519349814637
scalar abilene_cost_network.statistics 	repo_popularity[2] 	0.3966016531012
scalar abilene_cost_network.statistics 	stabilization_time 	36060
scalar abilene_cost_network.statistics 	p_hit 	0.24356446499055
scalar abilene_cost_network.statistics 	interests 	101157.09090909
scalar abilene_cost_network.statistics 	data 	52158.181818182
scalar abilene_cost_network.statistics 	hdistance 	1.5617620271755
scalar abilene_cost_network.statistics 	avg_time 	0.006885577276
scalar abilene_cost_network.statistics 	downloads 	538922
scalar abilene_cost_network.statistics 	total_cost 	799274
scalar abilene_cost_network.statistics 	total_replicas 	100000
scalar abilene_cost_network.statistics 	inner_hit 	0.50290765639555
scalar abilene_cost_network.node[0].core_layer 	interests[0] 	247387
scalar abilene_cost_network.node[0].core_layer 	repo_load[0] 	95344
scalar abilene_cost_network.node[0].core_layer 	data[0] 	76046
scalar abilene_cost_network.node[0].core_layer 	repo_int[0] 	267894
scalar abilene_cost_network.node[0].content_store 	p_hit[0] 	0.30710587055908
scalar abilene_cost_network.node[0].content_store 	hits[0] 	75974
scalar abilene_cost_network.node[0].content_store 	misses[0] 	171413
scalar abilene_cost_network.node[0].content_store 	decision_yes[0] 	903
scalar abilene_cost_network.node[0].content_store 	decision_no[0] 	170487
scalar abilene_cost_network.node[0].content_store 	decision_ratio[0] 	0.0052686854542272
scalar abilene_cost_network.node[1].core_layer 	interests[1] 	217789
scalar abilene_cost_network.node[1].core_layer 	data[1] 	139775
scalar abilene_cost_network.node[1].content_store 	p_hit[1] 	0.35805756948239
scalar abilene_cost_network.node[1].content_store 	hits[1] 	77981
scalar abilene_cost_network.node[1].content_store 	misses[1] 	139808
scalar abilene_cost_network.node[1].content_store 	decision_yes[1] 	690
scalar abilene_cost_network.node[1].content_store 	decision_no[1] 	139085
scalar abilene_cost_network.node[1].content_store 	decision_ratio[1] 	0.0049365050974781
scalar abilene_cost_network.node[2].core_layer 	interests[2] 	90784
scalar abilene_cost_network.node[2].core_layer 	data[2] 	82097
scalar abilene_cost_network.node[2].content_store 	p_hit[2] 	0.095688667606627
scalar abilene_cost_network.node[2].content_store 	hits[2] 	8687
scalar abilene_cost_network.node[2].content_store 	misses[2] 	82097
scalar abilene_cost_network.node[2].content_store 	decision_yes[2] 	416
scalar abilene_cost_network.node[2].content_store 	decision_no[2] 	81681
scalar abilene_cost_network.node[2].content_store 	decision_ratio[2] 	0.0050671766325201
scalar abilene_cost_network.node[3].core_layer 	interests[3] 	77148
scalar abilene_cost_network.node[3].core_layer 	data[3] 	73304
scalar abilene_cost_network.node[3].content_store 	p_hit[3] 	0.049839269974594
scalar abilene_cost_network.node[3].content_store 	hits[3] 	3845
scalar abilene_cost_network.node[3].content_store 	misses[3] 	73303
scalar abilene_cost_network.node[3].content_store 	decision_yes[3] 	383
scalar abilene_cost_network.node[3].content_store 	decision_no[3] 	72921
scalar abilene_cost_network.node[3].content_store 	decision_ratio[3] 	0.0052248171996071
scalar abilene_cost_network.node[4].core_layer 	interests[4] 	73304
scalar abilene_cost_network.node[4].core_layer 	repo_load[4] 	70393
scalar abilene_cost_network.node[4].core_layer 	data[4] 	0
scalar abilene_cost_network.node[4].content_store 	p_hit[4] 	0.039711339081087
scalar abilene_cost_network.node[4].content_store 	hits[4] 	2911
scalar abilene_cost_network.node[4].content_store 	misses[4] 	70393
scalar abilene_cost_network.node[4].content_store 	decision_yes[4] 	376
scalar abilene_cost_network.node[4].content_store 	decision_no[4] 	70017
scalar abilene_cost_network.node[4].content_store 	decision_ratio[4] 	0.0053414402000199
scalar abilene_cost_network.node[5].core_layer 	interests[5] 	0
scalar abilene_cost_network.node[5].core_layer 	data[5] 	0
scalar abilene_cost_network.node[5].content_store 	p_hit[5] 	-nan
scalar abilene_cost_network.node[5].content_store 	hits[5] 	0
scalar abilene_cost_network.node[5].content_store 	misses[5] 	0
scalar abilene_cost_network.node[5].content_store 	decision_yes[5] 	0
scalar abilene_cost_network.node[5].content_store 	decision_no[5] 	0
scalar abilene_cost_network.node[5].content_store 	decision_ratio[5] 	0
scalar abilene_cost_network.node[6].core_layer 	interests[6] 	0
scalar abilene_cost_network.node[6].core_layer 	data[6] 	0
scalar abilene_cost_network.node[6].content_store 	p_hit[6] 	-nan
scalar abilene_cost_network.node[6].content_store 	hits[6] 	0
scalar abilene_cost_network.node[6].content_store 	misses[6] 	0
scalar abilene_cost_network.node[6].content_store 	decision_yes[6] 	0
scalar abilene_cost_network.node[6].content_store 	decision_no[6] 	0
scalar abilene_cost_network.node[6].content_store 	decision_ratio[6] 	0
scalar abilene_cost_network.node[7].core_layer 	interests[7] 	0
scalar abilene_cost_network.node[7].core_layer 	data[7] 	0
scalar abilene_cost_network.node[7].content_store 	p_hit[7] 	-nan
scalar abilene_cost_network.node[7].content_store 	hits[7] 	0
scalar abilene_cost_network.node[7].content_store 	misses[7] 	0
scalar abilene_cost_network.node[7].content_store 	decision_yes[7] 	0
scalar abilene_cost_network.node[7].content_store 	decision_no[7] 	0
scalar abilene_cost_network.node[7].content_store 	decision_ratio[7] 	0
scalar abilene_cost_network.node[8].core_layer 	interests[8] 	36669
scalar abilene_cost_network.node[8].core_layer 	data[8] 	27926
scalar abilene_cost_network.node[8].content_store 	p_hit[8] 	0.23845755270119
scalar abilene_cost_network.node[8].content_store 	hits[8] 	8744
scalar abilene_cost_network.node[8].content_store 	misses[8] 	27925
scalar abilene_cost_network.node[8].content_store 	decision_yes[8] 	137
scalar abilene_cost_network.node[8].content_store 	decision_no[8] 	27789
scalar abilene_cost_network.node[8].content_store 	decision_ratio[8] 	0.0049058225309747
scalar abilene_cost_network.node[9].core_layer 	interests[9] 	247502
scalar abilene_cost_network.node[9].core_layer 	repo_load[9] 	102157
scalar abilene_cost_network.node[9].core_layer 	data[9] 	72711
scalar abilene_cost_network.node[9].content_store 	p_hit[9] 	0.29340368966715
scalar abilene_cost_network.node[9].content_store 	hits[9] 	72618
scalar abilene_cost_network.node[9].content_store 	misses[9] 	174884
scalar abilene_cost_network.node[9].content_store 	decision_yes[9] 	883
scalar abilene_cost_network.node[9].content_store 	decision_no[9] 	173985
scalar abilene_cost_network.node[9].content_store 	decision_ratio[9] 	0.0050495230688291
scalar abilene_cost_network.node[10].core_layer 	interests[10] 	122145
scalar abilene_cost_network.node[10].core_layer 	data[10] 	101881
scalar abilene_cost_network.node[10].content_store 	p_hit[10] 	0.16587662204757
scalar abilene_cost_network.node[10].content_store 	hits[10] 	20261
scalar abilene_cost_network.node[10].content_store 	misses[10] 	101884
scalar abilene_cost_network.node[10].content_store 	decision_yes[10] 	530
scalar abilene_cost_network.node[10].content_store 	decision_no[10] 	101351
scalar abilene_cost_network.node[10].content_store 	decision_ratio[10] 	0.0052021476035767
scalar abilene_cost_network.client[0] 	hdistance[0] 	1.5766987256418
scalar abilene_cost_network.client[0] 	downloads[0] 	179149
scalar abilene_cost_network.client[0] 	avg_time[0] 	0.006619734096
scalar abilene_cost_network.client[1] 	hdistance[1] 	1.5662726372146
scalar abilene_cost_network.client[1] 	downloads[1] 	179682
scalar abilene_cost_network.client[1] 	avg_time[1] 	0.007189808535
scalar abilene_cost_network.client[9] 	hdistance[9] 	1.54231471867
scalar abilene_cost_network.client[9] 	downloads[9] 	180091
scalar abilene_cost_network.client[9] 	avg_time[9] 	0.006847189197
