version 2
run General-18-20141007-11:02:31-8409
attr D fix0.005
attr F nrr
attr R lru
attr a 1
attr configname General
attr csize 1e3
attr ctlg 1e5
attr datetime 20141007-11:02:31
attr experiment General
attr inifile omnetpp.ini
attr iterationvars "$net=abilene_cost, $rep=1, $priceratiovalue=10, $weights=0.333_0.333_0.334, $lambda=100, $a=1, $ctlg=1e5, $F=nrr, $ttl=10, $D=fix0.005, $xi=1, $R=lru, $csize=1e3, $pricebits=0, $window=60, $variance=0.05, $mytime=1800"
attr iterationvars2 "$net=abilene_cost, $rep=1, $priceratiovalue=10, $weights=0.333_0.333_0.334, $lambda=100, $a=1, $ctlg=1e5, $F=nrr, $ttl=10, $D=fix0.005, $xi=1, $R=lru, $csize=1e3, $pricebits=0, $window=60, $variance=0.05, $mytime=1800, $repetition=0"
attr lambda 100
attr measurement "$net=abilene_cost, $rep=1, $priceratiovalue=10, $weights=0.333_0.333_0.334, $lambda=100, $a=1, $ctlg=1e5, $F=nrr, $ttl=10, $D=fix0.005, $xi=1, $R=lru, $csize=1e3, $pricebits=0, $window=60, $variance=0.05, $mytime=1800"
attr mytime 1800
attr net abilene_cost
attr network networks.${net=abilene_cost,geant_cost}_network
attr pricebits 0
attr priceratiovalue 10
attr processid 8409
attr rep 1
attr repetition 0
attr replication #0
attr resultdir results
attr runnumber 18
attr seedset 1
attr ttl 10
attr variance 0.05
attr weights 0.333_0.333_0.334
attr window 60
attr xi 1

scalar . 	a 	1
scalar . 	csize 	1e3
scalar . 	ctlg 	1e5
scalar . 	lambda 	100
scalar . 	mytime 	1800
scalar . 	pricebits 	0
scalar . 	priceratiovalue 	10
scalar . 	rep 	1
scalar . 	ttl 	10
scalar . 	variance 	0.05
scalar . 	window 	60
scalar . 	xi 	1
scalar abilene_cost_network.content_distribution 	repo-0 	10
scalar abilene_cost_network.content_distribution 	repo-1 	7
scalar abilene_cost_network.content_distribution 	repo-2 	5
scalar abilene_cost_network.content_distribution 	client-0 	8
scalar abilene_cost_network.content_distribution 	client-1 	7
scalar abilene_cost_network.content_distribution 	client-2 	2
scalar abilene_cost_network.content_distribution 	repo-0_card 	33397
scalar abilene_cost_network.content_distribution 	repo-0_price 	0
scalar abilene_cost_network.content_distribution 	repo-1_card 	33041
scalar abilene_cost_network.content_distribution 	repo-1_price 	10
scalar abilene_cost_network.content_distribution 	repo-2_card 	33562
scalar abilene_cost_network.content_distribution 	repo-2_price 	1
scalar abilene_cost_network.statistics 	repo_popularity[0] 	0.36106327575467
scalar abilene_cost_network.statistics 	repo_popularity[1] 	0.3490006524958
scalar abilene_cost_network.statistics 	repo_popularity[2] 	0.28993607174955
scalar abilene_cost_network.statistics 	stabilization_time 	36060
scalar abilene_cost_network.statistics 	p_hit 	0.25330039582842
scalar abilene_cost_network.statistics 	interests 	103741
scalar abilene_cost_network.statistics 	data 	54664
scalar abilene_cost_network.statistics 	hdistance 	1.5781183152009
scalar abilene_cost_network.statistics 	avg_time 	0.007109080541
scalar abilene_cost_network.statistics 	downloads 	539780
scalar abilene_cost_network.statistics 	total_cost 	1059829
scalar abilene_cost_network.statistics 	total_replicas 	100000
scalar abilene_cost_network.statistics 	inner_hit 	0.53554225795695
scalar abilene_cost_network.node[0].core_layer 	interests[0] 	0
scalar abilene_cost_network.node[0].core_layer 	data[0] 	0
scalar abilene_cost_network.node[0].core_layer 	repo_int[0] 	250705
scalar abilene_cost_network.node[0].content_store 	p_hit[0] 	-nan
scalar abilene_cost_network.node[0].content_store 	hits[0] 	0
scalar abilene_cost_network.node[0].content_store 	misses[0] 	0
scalar abilene_cost_network.node[0].content_store 	decision_yes[0] 	0
scalar abilene_cost_network.node[0].content_store 	decision_no[0] 	0
scalar abilene_cost_network.node[0].content_store 	decision_ratio[0] 	0
scalar abilene_cost_network.node[1].core_layer 	interests[1] 	33876
scalar abilene_cost_network.node[1].core_layer 	data[1] 	26898
scalar abilene_cost_network.node[1].content_store 	p_hit[1] 	0.20598653914276
scalar abilene_cost_network.node[1].content_store 	hits[1] 	6978
scalar abilene_cost_network.node[1].content_store 	misses[1] 	26898
scalar abilene_cost_network.node[1].content_store 	decision_yes[1] 	121
scalar abilene_cost_network.node[1].content_store 	decision_no[1] 	26777
scalar abilene_cost_network.node[1].content_store 	decision_ratio[1] 	0.0044984757231021
scalar abilene_cost_network.node[2].core_layer 	interests[2] 	198225
scalar abilene_cost_network.node[2].core_layer 	data[2] 	120164
scalar abilene_cost_network.node[2].content_store 	p_hit[2] 	0.39365872115021
scalar abilene_cost_network.node[2].content_store 	hits[2] 	78033
scalar abilene_cost_network.node[2].content_store 	misses[2] 	120192
scalar abilene_cost_network.node[2].content_store 	decision_yes[2] 	630
scalar abilene_cost_network.node[2].content_store 	decision_no[2] 	119534
scalar abilene_cost_network.node[2].content_store 	decision_ratio[2] 	0.0052428347924503
scalar abilene_cost_network.node[3].core_layer 	interests[3] 	87081
scalar abilene_cost_network.node[3].core_layer 	data[3] 	71695
scalar abilene_cost_network.node[3].content_store 	p_hit[3] 	0.17668607388523
scalar abilene_cost_network.node[3].content_store 	hits[3] 	15386
scalar abilene_cost_network.node[3].content_store 	misses[3] 	71695
scalar abilene_cost_network.node[3].content_store 	decision_yes[3] 	370
scalar abilene_cost_network.node[3].content_store 	decision_no[3] 	71325
scalar abilene_cost_network.node[3].content_store 	decision_ratio[3] 	0.0051607504010043
scalar abilene_cost_network.node[4].core_layer 	interests[4] 	31416
scalar abilene_cost_network.node[4].core_layer 	data[4] 	26958
scalar abilene_cost_network.node[4].content_store 	p_hit[4] 	0.14190221543163
scalar abilene_cost_network.node[4].content_store 	hits[4] 	4458
scalar abilene_cost_network.node[4].content_store 	misses[4] 	26958
scalar abilene_cost_network.node[4].content_store 	decision_yes[4] 	144
scalar abilene_cost_network.node[4].content_store 	decision_no[4] 	26814
scalar abilene_cost_network.node[4].content_store 	decision_ratio[4] 	0.0053416425550857
scalar abilene_cost_network.node[5].core_layer 	interests[5] 	80390
scalar abilene_cost_network.node[5].core_layer 	repo_load[5] 	76429
scalar abilene_cost_network.node[5].core_layer 	data[5] 	0
scalar abilene_cost_network.node[5].content_store 	p_hit[5] 	0.049272297549446
scalar abilene_cost_network.node[5].content_store 	hits[5] 	3961
scalar abilene_cost_network.node[5].content_store 	misses[5] 	76429
scalar abilene_cost_network.node[5].content_store 	decision_yes[5] 	376
scalar abilene_cost_network.node[5].content_store 	decision_no[5] 	76053
scalar abilene_cost_network.node[5].content_store 	decision_ratio[5] 	0.0049195985816902
scalar abilene_cost_network.node[6].core_layer 	interests[6] 	61280
scalar abilene_cost_network.node[6].core_layer 	data[6] 	53432
scalar abilene_cost_network.node[6].content_store 	p_hit[6] 	0.12806788511749
scalar abilene_cost_network.node[6].content_store 	hits[6] 	7848
scalar abilene_cost_network.node[6].content_store 	misses[6] 	53432
scalar abilene_cost_network.node[6].content_store 	decision_yes[6] 	232
scalar abilene_cost_network.node[6].content_store 	decision_no[6] 	53200
scalar abilene_cost_network.node[6].content_store 	decision_ratio[6] 	0.0043419673603833
scalar abilene_cost_network.node[7].core_layer 	interests[7] 	281196
scalar abilene_cost_network.node[7].core_layer 	repo_load[7] 	98340
scalar abilene_cost_network.node[7].core_layer 	data[7] 	107252
scalar abilene_cost_network.node[7].content_store 	p_hit[7] 	0.26881250088906
scalar abilene_cost_network.node[7].content_store 	hits[7] 	75589
scalar abilene_cost_network.node[7].content_store 	misses[7] 	205607
scalar abilene_cost_network.node[7].content_store 	decision_yes[7] 	987
scalar abilene_cost_network.node[7].content_store 	decision_no[7] 	204605
scalar abilene_cost_network.node[7].content_store 	decision_ratio[7] 	0.0048007704579945
scalar abilene_cost_network.node[8].core_layer 	interests[8] 	224774
scalar abilene_cost_network.node[8].core_layer 	data[8] 	141462
scalar abilene_cost_network.node[8].content_store 	p_hit[8] 	0.37044764963919
scalar abilene_cost_network.node[8].content_store 	hits[8] 	83267
scalar abilene_cost_network.node[8].content_store 	misses[8] 	141507
scalar abilene_cost_network.node[8].content_store 	decision_yes[8] 	714
scalar abilene_cost_network.node[8].content_store 	decision_no[8] 	140748
scalar abilene_cost_network.node[8].content_store 	decision_ratio[8] 	0.0050472918522289
scalar abilene_cost_network.node[9].core_layer 	interests[9] 	62572
scalar abilene_cost_network.node[9].core_layer 	data[9] 	53443
scalar abilene_cost_network.node[9].content_store 	p_hit[9] 	0.14589592789107
scalar abilene_cost_network.node[9].content_store 	hits[9] 	9129
scalar abilene_cost_network.node[9].content_store 	misses[9] 	53443
scalar abilene_cost_network.node[9].content_store 	decision_yes[9] 	257
scalar abilene_cost_network.node[9].content_store 	decision_no[9] 	53186
scalar abilene_cost_network.node[9].content_store 	decision_ratio[9] 	0.0048088617779691
scalar abilene_cost_network.node[10].core_layer 	interests[10] 	80341
scalar abilene_cost_network.node[10].core_layer 	repo_load[10] 	75936
scalar abilene_cost_network.node[10].core_layer 	data[10] 	0
scalar abilene_cost_network.node[10].content_store 	p_hit[10] 	0.054828792272937
scalar abilene_cost_network.node[10].content_store 	hits[10] 	4405
scalar abilene_cost_network.node[10].content_store 	misses[10] 	75936
scalar abilene_cost_network.node[10].content_store 	decision_yes[10] 	357
scalar abilene_cost_network.node[10].content_store 	decision_no[10] 	75579
scalar abilene_cost_network.node[10].content_store 	decision_ratio[10] 	0.0047013274336283
scalar abilene_cost_network.client[2] 	hdistance[2] 	1.7463620569456
scalar abilene_cost_network.client[2] 	downloads[2] 	180734
scalar abilene_cost_network.client[2] 	avg_time[2] 	0.007394391955
scalar abilene_cost_network.client[7] 	hdistance[7] 	1.4100781154236
scalar abilene_cost_network.client[7] 	downloads[7] 	179478
scalar abilene_cost_network.client[7] 	avg_time[7] 	0.00618473316
scalar abilene_cost_network.client[8] 	hdistance[8] 	1.5779147732335
scalar abilene_cost_network.client[8] 	downloads[8] 	179568
scalar abilene_cost_network.client[8] 	avg_time[8] 	0.00774811651
