version 2
run General-18-20141007-11:27:54-518
attr D fix0.005
attr F nrr
attr R lru
attr a 1
attr configname General
attr csize 1e3
attr ctlg 1e5
attr datetime 20141007-11:27:54
attr experiment General
attr inifile omnetpp.ini
attr iterationvars "$net=abilene_cost, $rep=4, $priceratiovalue=10, $weights=0.333_0.333_0.334, $lambda=100, $a=1, $ctlg=1e5, $F=nrr, $ttl=10, $D=fix0.005, $xi=1, $R=lru, $csize=1e3, $pricebits=0, $window=60, $variance=0.05, $mytime=1800"
attr iterationvars2 "$net=abilene_cost, $rep=4, $priceratiovalue=10, $weights=0.333_0.333_0.334, $lambda=100, $a=1, $ctlg=1e5, $F=nrr, $ttl=10, $D=fix0.005, $xi=1, $R=lru, $csize=1e3, $pricebits=0, $window=60, $variance=0.05, $mytime=1800, $repetition=0"
attr lambda 100
attr measurement "$net=abilene_cost, $rep=4, $priceratiovalue=10, $weights=0.333_0.333_0.334, $lambda=100, $a=1, $ctlg=1e5, $F=nrr, $ttl=10, $D=fix0.005, $xi=1, $R=lru, $csize=1e3, $pricebits=0, $window=60, $variance=0.05, $mytime=1800"
attr mytime 1800
attr net abilene_cost
attr network networks.${net=abilene_cost,geant_cost}_network
attr pricebits 0
attr priceratiovalue 10
attr processid 518
attr rep 4
attr repetition 0
attr replication #0
attr resultdir results
attr runnumber 18
attr seedset 4
attr ttl 10
attr variance 0.05
attr weights 0.333_0.333_0.334
attr window 60
attr xi 1

scalar . 	a 	1
scalar . 	csize 	1e3
scalar . 	ctlg 	1e5
scalar . 	lambda 	100
scalar . 	mytime 	1800
scalar . 	pricebits 	0
scalar . 	priceratiovalue 	10
scalar . 	rep 	4
scalar . 	ttl 	10
scalar . 	variance 	0.05
scalar . 	window 	60
scalar . 	xi 	1
scalar abilene_cost_network.content_distribution 	repo-0 	2
scalar abilene_cost_network.content_distribution 	repo-1 	0
scalar abilene_cost_network.content_distribution 	repo-2 	10
scalar abilene_cost_network.content_distribution 	client-0 	6
scalar abilene_cost_network.content_distribution 	client-1 	2
scalar abilene_cost_network.content_distribution 	client-2 	4
scalar abilene_cost_network.content_distribution 	repo-0_card 	33274
scalar abilene_cost_network.content_distribution 	repo-0_price 	0
scalar abilene_cost_network.content_distribution 	repo-1_card 	33153
scalar abilene_cost_network.content_distribution 	repo-1_price 	1
scalar abilene_cost_network.content_distribution 	repo-2_card 	33573
scalar abilene_cost_network.content_distribution 	repo-2_price 	10
scalar abilene_cost_network.statistics 	repo_popularity[0] 	0.33945880017902
scalar abilene_cost_network.statistics 	repo_popularity[1] 	0.30988277584688
scalar abilene_cost_network.statistics 	repo_popularity[2] 	0.35065842397411
scalar abilene_cost_network.statistics 	stabilization_time 	6347.4
scalar abilene_cost_network.statistics 	p_hit 	0.21202547935575
scalar abilene_cost_network.statistics 	interests 	123622.36363636
scalar abilene_cost_network.statistics 	data 	74668.818181818
scalar abilene_cost_network.statistics 	hdistance 	1.9890429777698
scalar abilene_cost_network.statistics 	avg_time 	0.009290114431
scalar abilene_cost_network.statistics 	downloads 	538444
scalar abilene_cost_network.statistics 	total_cost 	804553
scalar abilene_cost_network.statistics 	total_replicas 	100000
scalar abilene_cost_network.statistics 	inner_hit 	0.53551529964119
scalar abilene_cost_network.node[0].core_layer 	interests[0] 	80014
scalar abilene_cost_network.node[0].core_layer 	repo_load[0] 	75893
scalar abilene_cost_network.node[0].core_layer 	data[0] 	0
scalar abilene_cost_network.node[0].core_layer 	repo_int[0] 	250099
scalar abilene_cost_network.node[0].content_store 	p_hit[0] 	0.051503486889794
scalar abilene_cost_network.node[0].content_store 	hits[0] 	4121
scalar abilene_cost_network.node[0].content_store 	misses[0] 	75893
scalar abilene_cost_network.node[0].content_store 	decision_yes[0] 	348
scalar abilene_cost_network.node[0].content_store 	decision_no[0] 	75545
scalar abilene_cost_network.node[0].content_store 	decision_ratio[0] 	0.0045854031333588
scalar abilene_cost_network.node[1].core_layer 	interests[1] 	137130
scalar abilene_cost_network.node[1].core_layer 	data[1] 	131170
scalar abilene_cost_network.node[1].content_store 	p_hit[1] 	0.043462407934077
scalar abilene_cost_network.node[1].content_store 	hits[1] 	5960
scalar abilene_cost_network.node[1].content_store 	misses[1] 	131170
scalar abilene_cost_network.node[1].content_store 	decision_yes[1] 	657
scalar abilene_cost_network.node[1].content_store 	decision_no[1] 	130513
scalar abilene_cost_network.node[1].content_store 	decision_ratio[1] 	0.0050087672486087
scalar abilene_cost_network.node[2].core_layer 	interests[2] 	329593
scalar abilene_cost_network.node[2].core_layer 	repo_load[2] 	101340
scalar abilene_cost_network.node[2].core_layer 	data[2] 	158868
scalar abilene_cost_network.node[2].content_store 	p_hit[2] 	0.21044439657396
scalar abilene_cost_network.node[2].content_store 	hits[2] 	69361
scalar abilene_cost_network.node[2].content_store 	misses[2] 	260232
scalar abilene_cost_network.node[2].content_store 	decision_yes[2] 	1347
scalar abilene_cost_network.node[2].content_store 	decision_no[2] 	258861
scalar abilene_cost_network.node[2].content_store 	decision_ratio[2] 	0.0051766279284265
scalar abilene_cost_network.node[3].core_layer 	interests[3] 	178170
scalar abilene_cost_network.node[3].core_layer 	data[3] 	161551
scalar abilene_cost_network.node[3].content_store 	p_hit[3] 	0.093242408935287
scalar abilene_cost_network.node[3].content_store 	hits[3] 	16613
scalar abilene_cost_network.node[3].content_store 	misses[3] 	161557
scalar abilene_cost_network.node[3].content_store 	decision_yes[3] 	835
scalar abilene_cost_network.node[3].content_store 	decision_no[3] 	160716
scalar abilene_cost_network.node[3].content_store 	decision_ratio[3] 	0.005168646433634
scalar abilene_cost_network.node[4].core_layer 	interests[4] 	185674
scalar abilene_cost_network.node[4].core_layer 	data[4] 	110960
scalar abilene_cost_network.node[4].content_store 	p_hit[4] 	0.40229649816345
scalar abilene_cost_network.node[4].content_store 	hits[4] 	74696
scalar abilene_cost_network.node[4].content_store 	misses[4] 	110978
scalar abilene_cost_network.node[4].content_store 	decision_yes[4] 	554
scalar abilene_cost_network.node[4].content_store 	decision_no[4] 	110406
scalar abilene_cost_network.node[4].content_store 	decision_ratio[4] 	0.0049927901946647
scalar abilene_cost_network.node[5].core_layer 	interests[5] 	19204
scalar abilene_cost_network.node[5].core_layer 	data[5] 	2063
scalar abilene_cost_network.node[5].content_store 	p_hit[5] 	0.89257446365341
scalar abilene_cost_network.node[5].content_store 	hits[5] 	17141
scalar abilene_cost_network.node[5].content_store 	misses[5] 	2063
scalar abilene_cost_network.node[5].content_store 	decision_yes[5] 	11
scalar abilene_cost_network.node[5].content_store 	decision_no[5] 	2052
scalar abilene_cost_network.node[5].content_store 	decision_ratio[5] 	0.0053320407174018
scalar abilene_cost_network.node[6].core_layer 	interests[6] 	180804
scalar abilene_cost_network.node[6].core_layer 	data[6] 	107685
scalar abilene_cost_network.node[6].content_store 	p_hit[6] 	0.40430521448641
scalar abilene_cost_network.node[6].content_store 	hits[6] 	73100
scalar abilene_cost_network.node[6].content_store 	misses[6] 	107704
scalar abilene_cost_network.node[6].content_store 	decision_yes[6] 	557
scalar abilene_cost_network.node[6].content_store 	decision_no[6] 	107128
scalar abilene_cost_network.node[6].content_store 	decision_ratio[6] 	0.0051724938477968
scalar abilene_cost_network.node[7].core_layer 	interests[7] 	105340
scalar abilene_cost_network.node[7].core_layer 	data[7] 	93884
scalar abilene_cost_network.node[7].content_store 	p_hit[7] 	0.10874311752421
scalar abilene_cost_network.node[7].content_store 	hits[7] 	11455
scalar abilene_cost_network.node[7].content_store 	misses[7] 	93885
scalar abilene_cost_network.node[7].content_store 	decision_yes[7] 	495
scalar abilene_cost_network.node[7].content_store 	decision_no[7] 	93389
scalar abilene_cost_network.node[7].content_store 	decision_ratio[7] 	0.0052724638916109
scalar abilene_cost_network.node[8].core_layer 	interests[8] 	37585
scalar abilene_cost_network.node[8].core_layer 	data[8] 	29393
scalar abilene_cost_network.node[8].content_store 	p_hit[8] 	0.21795929227085
scalar abilene_cost_network.node[8].content_store 	hits[8] 	8192
scalar abilene_cost_network.node[8].content_store 	misses[8] 	29393
scalar abilene_cost_network.node[8].content_store 	decision_yes[8] 	132
scalar abilene_cost_network.node[8].content_store 	decision_no[8] 	29261
scalar abilene_cost_network.node[8].content_store 	decision_ratio[8] 	0.0044908651719797
scalar abilene_cost_network.node[9].core_layer 	interests[9] 	29393
scalar abilene_cost_network.node[9].core_layer 	data[9] 	25783
scalar abilene_cost_network.node[9].content_store 	p_hit[9] 	0.12281835811248
scalar abilene_cost_network.node[9].content_store 	hits[9] 	3610
scalar abilene_cost_network.node[9].content_store 	misses[9] 	25783
scalar abilene_cost_network.node[9].content_store 	decision_yes[9] 	138
scalar abilene_cost_network.node[9].content_store 	decision_no[9] 	25645
scalar abilene_cost_network.node[9].content_store 	decision_ratio[9] 	0.0053523639607493
scalar abilene_cost_network.node[10].core_layer 	interests[10] 	76939
scalar abilene_cost_network.node[10].core_layer 	repo_load[10] 	72866
scalar abilene_cost_network.node[10].core_layer 	data[10] 	0
scalar abilene_cost_network.node[10].content_store 	p_hit[10] 	0.052938041825342
scalar abilene_cost_network.node[10].content_store 	hits[10] 	4073
scalar abilene_cost_network.node[10].content_store 	misses[10] 	72866
scalar abilene_cost_network.node[10].content_store 	decision_yes[10] 	382
scalar abilene_cost_network.node[10].content_store 	decision_no[10] 	72484
scalar abilene_cost_network.node[10].content_store 	decision_ratio[10] 	0.0052424999313809
scalar abilene_cost_network.client[2] 	hdistance[2] 	1.2495501938916
scalar abilene_cost_network.client[2] 	downloads[2] 	178966
scalar abilene_cost_network.client[2] 	avg_time[2] 	0.005708349009
scalar abilene_cost_network.client[4] 	hdistance[4] 	2.2081684159032
scalar abilene_cost_network.client[4] 	downloads[4] 	179888
scalar abilene_cost_network.client[4] 	avg_time[4] 	0.009027434238
scalar abilene_cost_network.client[6] 	hdistance[6] 	2.5094103235147
scalar abilene_cost_network.client[6] 	downloads[6] 	179590
scalar abilene_cost_network.client[6] 	avg_time[6] 	0.013134560047
