version 2
run General-78-20140521-01:01:34-1016
attr D tailandrank
attr F nrr
attr R lru
attr a 1
attr configname General
attr csize 1e5
attr ctlg 1e7
attr datetime 20140521-01:01:34
attr experiment General
attr inifile omnetpp.ini
attr iterationvars "$net=one_cache_scenario_3_links, $rep=4, $priceratiovalue=10, $weights=0.333_0.333_0.334, $a=1, $ctlg=1e7, $F=nrr, $ttl=1000, $D=tailandrank, $xi=1, $R=lru, $csize=1e5, $pricebits=0, $mytime=180000"
attr iterationvars2 "$net=one_cache_scenario_3_links, $rep=4, $priceratiovalue=10, $weights=0.333_0.333_0.334, $a=1, $ctlg=1e7, $F=nrr, $ttl=1000, $D=tailandrank, $xi=1, $R=lru, $csize=1e5, $pricebits=0, $mytime=180000, $repetition=0"
attr measurement "$net=one_cache_scenario_3_links, $rep=4, $priceratiovalue=10, $weights=0.333_0.333_0.334, $a=1, $ctlg=1e7, $F=nrr, $ttl=1000, $D=tailandrank, $xi=1, $R=lru, $csize=1e5, $pricebits=0, $mytime=180000"
attr mytime 180000
attr net one_cache_scenario_3_links
attr network networks.${net=one_cache_scenario_3_links}_network
attr pricebits 0
attr priceratiovalue 10
attr processid 1016
attr rep 4
attr repetition 0
attr replication #0
attr resultdir results
attr runnumber 78
attr seedset 4
attr ttl 1000
attr weights 0.333_0.333_0.334
attr xi 1

scalar . 	a 	1
scalar . 	csize 	1e5
scalar . 	ctlg 	1e7
scalar . 	mytime 	180000
scalar . 	pricebits 	0
scalar . 	priceratiovalue 	10
scalar . 	rep 	4
scalar . 	ttl 	1000
scalar . 	xi 	1
scalar one_cache_scenario_3_links_network.content_distribution 	repo-0 	4
scalar one_cache_scenario_3_links_network.content_distribution 	repo-1 	5
scalar one_cache_scenario_3_links_network.content_distribution 	repo-2 	6
scalar one_cache_scenario_3_links_network.content_distribution 	client-0 	0
scalar one_cache_scenario_3_links_network.content_distribution 	repo-0_card 	3328920
scalar one_cache_scenario_3_links_network.content_distribution 	repo-1_card 	3329516
scalar one_cache_scenario_3_links_network.content_distribution 	repo-2_card 	3341564
scalar one_cache_scenario_3_links_network.statistics 	repo_popularity[0] 	0.29616050275299
scalar one_cache_scenario_3_links_network.statistics 	repo_popularity[1] 	0.31218993410267
scalar one_cache_scenario_3_links_network.statistics 	repo_popularity[2] 	0.39164956314434
scalar one_cache_scenario_3_links_network.node[1].face$o[2].channel 	price[1] 	0
scalar one_cache_scenario_3_links_network.node[1].face$o[2].channel 	represented_price[1] 	0
scalar one_cache_scenario_3_links_network.node[2].face$o[2].channel 	price[2] 	0
scalar one_cache_scenario_3_links_network.node[2].face$o[2].channel 	represented_price[2] 	0
scalar one_cache_scenario_3_links_network.node[3].face$o[2].channel 	price[3] 	0
scalar one_cache_scenario_3_links_network.node[3].face$o[2].channel 	represented_price[3] 	0
scalar one_cache_scenario_3_links_network.node[4].face$o[1].channel 	price[4] 	0
scalar one_cache_scenario_3_links_network.node[4].face$o[1].channel 	represented_price[4] 	0
scalar one_cache_scenario_3_links_network.node[5].face$o[1].channel 	price[5] 	1
scalar one_cache_scenario_3_links_network.node[5].face$o[1].channel 	represented_price[5] 	1
scalar one_cache_scenario_3_links_network.node[6].face$o[1].channel 	price[6] 	10
scalar one_cache_scenario_3_links_network.node[6].face$o[1].channel 	represented_price[6] 	10
scalar one_cache_scenario_3_links_network.statistics 	p_hit 	0.44796988497235
scalar one_cache_scenario_3_links_network.statistics 	interests 	4068400.7142857
scalar one_cache_scenario_3_links_network.statistics 	data 	1497253.1428571
scalar one_cache_scenario_3_links_network.statistics 	hdistance 	0.58232874670247
scalar one_cache_scenario_3_links_network.statistics 	avg_time 	0
scalar one_cache_scenario_3_links_network.statistics 	downloads 	17998033
scalar one_cache_scenario_3_links_network.statistics 	total_cost 	19260667
scalar one_cache_scenario_3_links_network.statistics 	total_replicas 	10000000
scalar one_cache_scenario_3_links_network.statistics 	interests_sent 	17998033
scalar one_cache_scenario_3_links_network.node[0].core_layer 	interests[0] 	17998033
scalar one_cache_scenario_3_links_network.node[0].core_layer 	data[0] 	5240386
scalar one_cache_scenario_3_links_network.node[0].core_layer 	repo_int[0] 	5240386
scalar one_cache_scenario_3_links_network.node[0].content_store 	p_hit[0] 	0.70883562664876
scalar one_cache_scenario_3_links_network.node[0].content_store 	hits[0] 	12757647
scalar one_cache_scenario_3_links_network.node[0].content_store 	misses[0] 	5240386
scalar one_cache_scenario_3_links_network.node[0].content_store 	decision_yes[0] 	151795
scalar one_cache_scenario_3_links_network.node[0].content_store 	decision_no[0] 	5088591
scalar one_cache_scenario_3_links_network.node[0].content_store 	decision_ratio[0] 	0.028966377667599
scalar one_cache_scenario_3_links_network.node[1].core_layer 	interests[1] 	1743876
scalar one_cache_scenario_3_links_network.node[1].core_layer 	data[1] 	1743876
scalar one_cache_scenario_3_links_network.node[1].content_store 	p_hit[1] 	0
scalar one_cache_scenario_3_links_network.node[1].content_store 	hits[1] 	0
scalar one_cache_scenario_3_links_network.node[1].content_store 	misses[1] 	1743876
scalar one_cache_scenario_3_links_network.node[1].content_store 	decision_yes[1] 	0
scalar one_cache_scenario_3_links_network.node[1].content_store 	decision_no[1] 	1743876
scalar one_cache_scenario_3_links_network.node[1].content_store 	decision_ratio[1] 	0
scalar one_cache_scenario_3_links_network.node[2].core_layer 	interests[2] 	1744937
scalar one_cache_scenario_3_links_network.node[2].core_layer 	data[2] 	1744937
scalar one_cache_scenario_3_links_network.node[2].content_store 	p_hit[2] 	0
scalar one_cache_scenario_3_links_network.node[2].content_store 	hits[2] 	0
scalar one_cache_scenario_3_links_network.node[2].content_store 	misses[2] 	1744937
scalar one_cache_scenario_3_links_network.node[2].content_store 	decision_yes[2] 	0
scalar one_cache_scenario_3_links_network.node[2].content_store 	decision_no[2] 	1744937
scalar one_cache_scenario_3_links_network.node[2].content_store 	decision_ratio[2] 	0
scalar one_cache_scenario_3_links_network.node[3].core_layer 	interests[3] 	1751573
scalar one_cache_scenario_3_links_network.node[3].core_layer 	data[3] 	1751573
scalar one_cache_scenario_3_links_network.node[3].content_store 	p_hit[3] 	0
scalar one_cache_scenario_3_links_network.node[3].content_store 	hits[3] 	0
scalar one_cache_scenario_3_links_network.node[3].content_store 	misses[3] 	1751573
scalar one_cache_scenario_3_links_network.node[3].content_store 	decision_yes[3] 	0
scalar one_cache_scenario_3_links_network.node[3].content_store 	decision_no[3] 	1751573
scalar one_cache_scenario_3_links_network.node[3].content_store 	decision_ratio[3] 	0
scalar one_cache_scenario_3_links_network.node[4].core_layer 	interests[4] 	1743876
scalar one_cache_scenario_3_links_network.node[4].core_layer 	repo_load[4] 	1743876
scalar one_cache_scenario_3_links_network.node[4].core_layer 	data[4] 	0
scalar one_cache_scenario_3_links_network.node[4].content_store 	p_hit[4] 	0
scalar one_cache_scenario_3_links_network.node[4].content_store 	hits[4] 	0
scalar one_cache_scenario_3_links_network.node[4].content_store 	misses[4] 	1743876
scalar one_cache_scenario_3_links_network.node[4].content_store 	decision_yes[4] 	0
scalar one_cache_scenario_3_links_network.node[4].content_store 	decision_no[4] 	1743876
scalar one_cache_scenario_3_links_network.node[4].content_store 	decision_ratio[4] 	0
scalar one_cache_scenario_3_links_network.node[5].core_layer 	interests[5] 	1744937
scalar one_cache_scenario_3_links_network.node[5].core_layer 	repo_load[5] 	1744937
scalar one_cache_scenario_3_links_network.node[5].core_layer 	data[5] 	0
scalar one_cache_scenario_3_links_network.node[5].content_store 	p_hit[5] 	0
scalar one_cache_scenario_3_links_network.node[5].content_store 	hits[5] 	0
scalar one_cache_scenario_3_links_network.node[5].content_store 	misses[5] 	1744937
scalar one_cache_scenario_3_links_network.node[5].content_store 	decision_yes[5] 	0
scalar one_cache_scenario_3_links_network.node[5].content_store 	decision_no[5] 	1744937
scalar one_cache_scenario_3_links_network.node[5].content_store 	decision_ratio[5] 	0
scalar one_cache_scenario_3_links_network.node[6].core_layer 	interests[6] 	1751573
scalar one_cache_scenario_3_links_network.node[6].core_layer 	repo_load[6] 	1751573
scalar one_cache_scenario_3_links_network.node[6].core_layer 	data[6] 	0
scalar one_cache_scenario_3_links_network.node[6].content_store 	p_hit[6] 	0
scalar one_cache_scenario_3_links_network.node[6].content_store 	hits[6] 	0
scalar one_cache_scenario_3_links_network.node[6].content_store 	misses[6] 	1751573
scalar one_cache_scenario_3_links_network.node[6].content_store 	decision_yes[6] 	0
scalar one_cache_scenario_3_links_network.node[6].content_store 	decision_no[6] 	1751573
scalar one_cache_scenario_3_links_network.node[6].content_store 	decision_ratio[6] 	0
scalar one_cache_scenario_3_links_network.client[0] 	hdistance[0] 	0.58232874670247
scalar one_cache_scenario_3_links_network.client[0] 	downloads[0] 	17998033
scalar one_cache_scenario_3_links_network.client[0] 	avg_time[0] 	0
scalar one_cache_scenario_3_links_network.client[0] 	interests_sent[0] 	17998033
