version 2
run General-12-20141007-11:05:15-19321
attr D costaware0.05
attr F nrr
attr R lru
attr a 1
attr configname General
attr csize 1e3
attr ctlg 1e5
attr datetime 20141007-11:05:15
attr experiment General
attr inifile omnetpp.ini
attr iterationvars "$net=abilene_cost, $rep=5, $priceratiovalue=10, $weights=0.333_0.333_0.334, $lambda=100, $a=1, $ctlg=1e5, $F=nrr, $ttl=10, $D=costaware0.05, $xi=1, $R=lru, $csize=1e3, $pricebits=0, $window=60, $variance=0.05, $mytime=1800"
attr iterationvars2 "$net=abilene_cost, $rep=5, $priceratiovalue=10, $weights=0.333_0.333_0.334, $lambda=100, $a=1, $ctlg=1e5, $F=nrr, $ttl=10, $D=costaware0.05, $xi=1, $R=lru, $csize=1e3, $pricebits=0, $window=60, $variance=0.05, $mytime=1800, $repetition=0"
attr lambda 100
attr measurement "$net=abilene_cost, $rep=5, $priceratiovalue=10, $weights=0.333_0.333_0.334, $lambda=100, $a=1, $ctlg=1e5, $F=nrr, $ttl=10, $D=costaware0.05, $xi=1, $R=lru, $csize=1e3, $pricebits=0, $window=60, $variance=0.05, $mytime=1800"
attr mytime 1800
attr net abilene_cost
attr network networks.${net=abilene_cost,geant_cost}_network
attr pricebits 0
attr priceratiovalue 10
attr processid 19321
attr rep 5
attr repetition 0
attr replication #0
attr resultdir results
attr runnumber 12
attr seedset 5
attr ttl 10
attr variance 0.05
attr weights 0.333_0.333_0.334
attr window 60
attr xi 1

scalar . 	a 	1
scalar . 	csize 	1e3
scalar . 	ctlg 	1e5
scalar . 	lambda 	100
scalar . 	mytime 	1800
scalar . 	pricebits 	0
scalar . 	priceratiovalue 	10
scalar . 	rep 	5
scalar . 	ttl 	10
scalar . 	variance 	0.05
scalar . 	window 	60
scalar . 	xi 	1
scalar abilene_cost_network.content_distribution 	repo-0 	9
scalar abilene_cost_network.content_distribution 	repo-1 	5
scalar abilene_cost_network.content_distribution 	repo-2 	1
scalar abilene_cost_network.content_distribution 	client-0 	4
scalar abilene_cost_network.content_distribution 	client-1 	9
scalar abilene_cost_network.content_distribution 	client-2 	0
scalar abilene_cost_network.content_distribution 	repo-0_card 	33098
scalar abilene_cost_network.content_distribution 	repo-0_price 	1
scalar abilene_cost_network.content_distribution 	repo-1_card 	33495
scalar abilene_cost_network.content_distribution 	repo-1_price 	10
scalar abilene_cost_network.content_distribution 	repo-2_card 	33407
scalar abilene_cost_network.content_distribution 	repo-2_price 	0
scalar abilene_cost_network.statistics 	repo_popularity[0] 	0.31037770261398
scalar abilene_cost_network.statistics 	repo_popularity[1] 	0.29913869324176
scalar abilene_cost_network.statistics 	repo_popularity[2] 	0.39048360414427
scalar abilene_cost_network.statistics 	stabilization_time 	403.2
scalar abilene_cost_network.statistics 	p_hit 	0.093253920603281
scalar abilene_cost_network.statistics 	interests 	151414.54545455
scalar abilene_cost_network.statistics 	data 	102349.18181818
scalar abilene_cost_network.statistics 	hdistance 	2.8190761499894
scalar abilene_cost_network.statistics 	avg_time 	0.013648759551
scalar abilene_cost_network.statistics 	downloads 	533480
scalar abilene_cost_network.statistics 	total_cost 	878192
scalar abilene_cost_network.statistics 	total_replicas 	100000
scalar abilene_cost_network.statistics 	inner_hit 	0.29125178076029
scalar abilene_cost_network.node[0].core_layer 	interests[0] 	184104
scalar abilene_cost_network.node[0].core_layer 	data[0] 	175068
scalar abilene_cost_network.node[0].core_layer 	repo_int[0] 	378103
scalar abilene_cost_network.node[0].content_store 	p_hit[0] 	0.037668926259071
scalar abilene_cost_network.node[0].content_store 	hits[0] 	6935
scalar abilene_cost_network.node[0].content_store 	misses[0] 	177169
scalar abilene_cost_network.node[0].content_store 	decision_yes[0] 	3689
scalar abilene_cost_network.node[0].content_store 	decision_no[0] 	171379
scalar abilene_cost_network.node[0].content_store 	decision_ratio[0] 	0.021071812095871
scalar abilene_cost_network.node[0].content_store 	correction_factor[0] 	0.013612850530901
scalar abilene_cost_network.node[0].content_store 	kappa[0] 	1
scalar abilene_cost_network.node[1].core_layer 	interests[1] 	259006
scalar abilene_cost_network.node[1].core_layer 	repo_load[1] 	206231
scalar abilene_cost_network.node[1].core_layer 	data[1] 	49603
scalar abilene_cost_network.node[1].content_store 	p_hit[1] 	0.012250681451395
scalar abilene_cost_network.node[1].content_store 	hits[1] 	3173
scalar abilene_cost_network.node[1].content_store 	misses[1] 	255833
scalar abilene_cost_network.node[1].content_store 	decision_yes[1] 	3361
scalar abilene_cost_network.node[1].content_store 	decision_no[1] 	252473
scalar abilene_cost_network.node[1].content_store 	decision_ratio[1] 	0.013137425049055
scalar abilene_cost_network.node[1].content_store 	correction_factor[1] 	0.013612850530901
scalar abilene_cost_network.node[1].content_store 	kappa[1] 	1
scalar abilene_cost_network.node[2].core_layer 	interests[2] 	172200
scalar abilene_cost_network.node[2].core_layer 	data[2] 	163706
scalar abilene_cost_network.node[2].content_store 	p_hit[2] 	0.049250871080139
scalar abilene_cost_network.node[2].content_store 	hits[2] 	8481
scalar abilene_cost_network.node[2].content_store 	misses[2] 	163719
scalar abilene_cost_network.node[2].content_store 	decision_yes[2] 	3792
scalar abilene_cost_network.node[2].content_store 	decision_no[2] 	159914
scalar abilene_cost_network.node[2].content_store 	decision_ratio[2] 	0.023163475987441
scalar abilene_cost_network.node[2].content_store 	correction_factor[2] 	0.013612850530901
scalar abilene_cost_network.node[2].content_store 	kappa[2] 	1
scalar abilene_cost_network.node[3].core_layer 	interests[3] 	169066
scalar abilene_cost_network.node[3].core_layer 	data[3] 	160799
scalar abilene_cost_network.node[3].content_store 	p_hit[3] 	0.048898063478168
scalar abilene_cost_network.node[3].content_store 	hits[3] 	8267
scalar abilene_cost_network.node[3].content_store 	misses[3] 	160799
scalar abilene_cost_network.node[3].content_store 	decision_yes[3] 	3846
scalar abilene_cost_network.node[3].content_store 	decision_no[3] 	156953
scalar abilene_cost_network.node[3].content_store 	decision_ratio[3] 	0.02391805919191
scalar abilene_cost_network.node[3].content_store 	correction_factor[3] 	0.013612850530901
scalar abilene_cost_network.node[3].content_store 	kappa[3] 	1
scalar abilene_cost_network.node[4].core_layer 	interests[4] 	215298
scalar abilene_cost_network.node[4].core_layer 	data[4] 	195963
scalar abilene_cost_network.node[4].content_store 	p_hit[4] 	0.078723443784894
scalar abilene_cost_network.node[4].content_store 	hits[4] 	16949
scalar abilene_cost_network.node[4].content_store 	misses[4] 	198349
scalar abilene_cost_network.node[4].content_store 	decision_yes[4] 	7657
scalar abilene_cost_network.node[4].content_store 	decision_no[4] 	188306
scalar abilene_cost_network.node[4].content_store 	decision_ratio[4] 	0.039073702688773
scalar abilene_cost_network.node[4].content_store 	correction_factor[4] 	0.013612850530901
scalar abilene_cost_network.node[4].content_store 	kappa[4] 	1
scalar abilene_cost_network.node[5].core_layer 	interests[5] 	98324
scalar abilene_cost_network.node[5].core_layer 	repo_load[5] 	78480
scalar abilene_cost_network.node[5].core_layer 	data[5] 	0
scalar abilene_cost_network.node[5].content_store 	p_hit[5] 	0.20182254586876
scalar abilene_cost_network.node[5].content_store 	hits[5] 	19844
scalar abilene_cost_network.node[5].content_store 	misses[5] 	78480
scalar abilene_cost_network.node[5].content_store 	decision_yes[5] 	10672
scalar abilene_cost_network.node[5].content_store 	decision_no[5] 	67808
scalar abilene_cost_network.node[5].content_store 	decision_ratio[5] 	0.13598369011213
scalar abilene_cost_network.node[5].content_store 	correction_factor[5] 	0.013612850530901
scalar abilene_cost_network.node[5].content_store 	kappa[5] 	1
scalar abilene_cost_network.node[6].core_layer 	interests[6] 	32176
scalar abilene_cost_network.node[6].core_layer 	data[6] 	28440
scalar abilene_cost_network.node[6].content_store 	p_hit[6] 	0.11614246643461
scalar abilene_cost_network.node[6].content_store 	hits[6] 	3737
scalar abilene_cost_network.node[6].content_store 	misses[6] 	28439
scalar abilene_cost_network.node[6].content_store 	decision_yes[6] 	3336
scalar abilene_cost_network.node[6].content_store 	decision_no[6] 	25104
scalar abilene_cost_network.node[6].content_store 	decision_ratio[6] 	0.11729957805907
scalar abilene_cost_network.node[6].content_store 	correction_factor[6] 	0.013612850530901
scalar abilene_cost_network.node[6].content_store 	kappa[6] 	1
scalar abilene_cost_network.node[7].core_layer 	interests[7] 	36793
scalar abilene_cost_network.node[7].core_layer 	data[7] 	32177
scalar abilene_cost_network.node[7].content_store 	p_hit[7] 	0.12545864702525
scalar abilene_cost_network.node[7].content_store 	hits[7] 	4616
scalar abilene_cost_network.node[7].content_store 	misses[7] 	32177
scalar abilene_cost_network.node[7].content_store 	decision_yes[7] 	3353
scalar abilene_cost_network.node[7].content_store 	decision_no[7] 	28824
scalar abilene_cost_network.node[7].content_store 	decision_ratio[7] 	0.10420486683034
scalar abilene_cost_network.node[7].content_store 	correction_factor[7] 	0.013612850530901
scalar abilene_cost_network.node[7].content_store 	kappa[7] 	1
scalar abilene_cost_network.node[8].core_layer 	interests[8] 	88142
scalar abilene_cost_network.node[8].core_layer 	data[8] 	79136
scalar abilene_cost_network.node[8].content_store 	p_hit[8] 	0.10217603412675
scalar abilene_cost_network.node[8].content_store 	hits[8] 	9006
scalar abilene_cost_network.node[8].content_store 	misses[8] 	79136
scalar abilene_cost_network.node[8].content_store 	decision_yes[8] 	3804
scalar abilene_cost_network.node[8].content_store 	decision_no[8] 	75332
scalar abilene_cost_network.node[8].content_store 	decision_ratio[8] 	0.048069146785281
scalar abilene_cost_network.node[8].content_store 	correction_factor[8] 	0.013612850530901
scalar abilene_cost_network.node[8].content_store 	kappa[8] 	1
scalar abilene_cost_network.node[9].core_layer 	interests[9] 	273783
scalar abilene_cost_network.node[9].core_layer 	repo_load[9] 	93392
scalar abilene_cost_network.node[9].core_layer 	data[9] 	113804
scalar abilene_cost_network.node[9].content_store 	p_hit[9] 	0.23663996668895
scalar abilene_cost_network.node[9].content_store 	hits[9] 	64788
scalar abilene_cost_network.node[9].content_store 	misses[9] 	208995
scalar abilene_cost_network.node[9].content_store 	decision_yes[9] 	4711
scalar abilene_cost_network.node[9].content_store 	decision_no[9] 	202485
scalar abilene_cost_network.node[9].content_store 	decision_ratio[9] 	0.022736925423271
scalar abilene_cost_network.node[9].content_store 	correction_factor[9] 	0.013612850530901
scalar abilene_cost_network.node[9].content_store 	kappa[9] 	1
scalar abilene_cost_network.node[10].core_layer 	interests[10] 	136668
scalar abilene_cost_network.node[10].core_layer 	data[10] 	127145
scalar abilene_cost_network.node[10].content_store 	p_hit[10] 	0.069687125003659
scalar abilene_cost_network.node[10].content_store 	hits[10] 	9524
scalar abilene_cost_network.node[10].content_store 	misses[10] 	127144
scalar abilene_cost_network.node[10].content_store 	decision_yes[10] 	410
scalar abilene_cost_network.node[10].content_store 	decision_no[10] 	126735
scalar abilene_cost_network.node[10].content_store 	decision_ratio[10] 	0.0032246647528412
scalar abilene_cost_network.node[10].content_store 	correction_factor[10] 	0.013612850530901
scalar abilene_cost_network.node[10].content_store 	kappa[10] 	1
scalar abilene_cost_network.client[0] 	hdistance[0] 	2.8221939874958
scalar abilene_cost_network.client[0] 	downloads[0] 	178661
scalar abilene_cost_network.client[0] 	avg_time[0] 	0.014828711234
scalar abilene_cost_network.client[4] 	hdistance[4] 	3.267536520921
scalar abilene_cost_network.client[4] 	downloads[4] 	177501
scalar abilene_cost_network.client[4] 	avg_time[4] 	0.014112956573
scalar abilene_cost_network.client[9] 	hdistance[9] 	2.3674979415514
scalar abilene_cost_network.client[9] 	downloads[9] 	177318
scalar abilene_cost_network.client[9] 	avg_time[9] 	0.012004610847
