version 2
run General-12-20141007-11:46:54-22085
attr D costaware0.05
attr F nrr
attr R lru
attr a 1
attr configname General
attr csize 1e3
attr ctlg 1e5
attr datetime 20141007-11:46:54
attr experiment General
attr inifile omnetpp.ini
attr iterationvars "$net=abilene_cost, $rep=3, $priceratiovalue=10, $weights=0.333_0.333_0.334, $lambda=100, $a=1, $ctlg=1e5, $F=nrr, $ttl=10, $D=costaware0.05, $xi=1, $R=lru, $csize=1e3, $pricebits=0, $window=60, $variance=0.05, $mytime=1800"
attr iterationvars2 "$net=abilene_cost, $rep=3, $priceratiovalue=10, $weights=0.333_0.333_0.334, $lambda=100, $a=1, $ctlg=1e5, $F=nrr, $ttl=10, $D=costaware0.05, $xi=1, $R=lru, $csize=1e3, $pricebits=0, $window=60, $variance=0.05, $mytime=1800, $repetition=0"
attr lambda 100
attr measurement "$net=abilene_cost, $rep=3, $priceratiovalue=10, $weights=0.333_0.333_0.334, $lambda=100, $a=1, $ctlg=1e5, $F=nrr, $ttl=10, $D=costaware0.05, $xi=1, $R=lru, $csize=1e3, $pricebits=0, $window=60, $variance=0.05, $mytime=1800"
attr mytime 1800
attr net abilene_cost
attr network networks.${net=abilene_cost,geant_cost}_network
attr pricebits 0
attr priceratiovalue 10
attr processid 22085
attr rep 3
attr repetition 0
attr replication #0
attr resultdir results
attr runnumber 12
attr seedset 3
attr ttl 10
attr variance 0.05
attr weights 0.333_0.333_0.334
attr window 60
attr xi 1

scalar . 	a 	1
scalar . 	csize 	1e3
scalar . 	ctlg 	1e5
scalar . 	lambda 	100
scalar . 	mytime 	1800
scalar . 	pricebits 	0
scalar . 	priceratiovalue 	10
scalar . 	rep 	3
scalar . 	ttl 	10
scalar . 	variance 	0.05
scalar . 	window 	60
scalar . 	xi 	1
scalar abilene_cost_network.content_distribution 	repo-0 	9
scalar abilene_cost_network.content_distribution 	repo-1 	4
scalar abilene_cost_network.content_distribution 	repo-2 	0
scalar abilene_cost_network.content_distribution 	client-0 	9
scalar abilene_cost_network.content_distribution 	client-1 	0
scalar abilene_cost_network.content_distribution 	client-2 	1
scalar abilene_cost_network.content_distribution 	repo-0_card 	33498
scalar abilene_cost_network.content_distribution 	repo-0_price 	0
scalar abilene_cost_network.content_distribution 	repo-1_card 	33168
scalar abilene_cost_network.content_distribution 	repo-1_price 	10
scalar abilene_cost_network.content_distribution 	repo-2_card 	33334
scalar abilene_cost_network.content_distribution 	repo-2_price 	1
scalar abilene_cost_network.statistics 	repo_popularity[0] 	0.34820484875244
scalar abilene_cost_network.statistics 	repo_popularity[1] 	0.25519349814637
scalar abilene_cost_network.statistics 	repo_popularity[2] 	0.3966016531012
scalar abilene_cost_network.statistics 	stabilization_time 	36060
scalar abilene_cost_network.statistics 	p_hit 	0.13192691407238
scalar abilene_cost_network.statistics 	interests 	124063.18181818
scalar abilene_cost_network.statistics 	data 	75064.181818182
scalar abilene_cost_network.statistics 	hdistance 	2.2084667374211
scalar abilene_cost_network.statistics 	avg_time 	0.009953477385
scalar abilene_cost_network.statistics 	downloads 	534643
scalar abilene_cost_network.statistics 	total_cost 	864027
scalar abilene_cost_network.statistics 	total_replicas 	100000
scalar abilene_cost_network.statistics 	inner_hit 	0.3373054542938
scalar abilene_cost_network.node[0].core_layer 	interests[0] 	303754
scalar abilene_cost_network.node[0].core_layer 	repo_load[0] 	91167
scalar abilene_cost_network.node[0].core_layer 	data[0] 	104388
scalar abilene_cost_network.node[0].core_layer 	repo_int[0] 	354305
scalar abilene_cost_network.node[0].content_store 	p_hit[0] 	0.35473113111268
scalar abilene_cost_network.node[0].content_store 	hits[0] 	107751
scalar abilene_cost_network.node[0].content_store 	misses[0] 	196003
scalar abilene_cost_network.node[0].content_store 	decision_yes[0] 	4722
scalar abilene_cost_network.node[0].content_store 	decision_no[0] 	190833
scalar abilene_cost_network.node[0].content_store 	decision_ratio[0] 	0.024146659507555
scalar abilene_cost_network.node[0].content_store 	correction_factor[0] 	0.013612850530901
scalar abilene_cost_network.node[0].content_store 	kappa[0] 	1
scalar abilene_cost_network.node[1].core_layer 	interests[1] 	221818
scalar abilene_cost_network.node[1].core_layer 	data[1] 	208974
scalar abilene_cost_network.node[1].content_store 	p_hit[1] 	0.047949219630508
scalar abilene_cost_network.node[1].content_store 	hits[1] 	10636
scalar abilene_cost_network.node[1].content_store 	misses[1] 	211182
scalar abilene_cost_network.node[1].content_store 	decision_yes[1] 	7493
scalar abilene_cost_network.node[1].content_store 	decision_no[1] 	201481
scalar abilene_cost_network.node[1].content_store 	decision_ratio[1] 	0.035856135212993
scalar abilene_cost_network.node[1].content_store 	correction_factor[1] 	0.013612850530901
scalar abilene_cost_network.node[1].content_store 	kappa[1] 	1
scalar abilene_cost_network.node[2].core_layer 	interests[2] 	102537
scalar abilene_cost_network.node[2].core_layer 	data[2] 	93271
scalar abilene_cost_network.node[2].content_store 	p_hit[2] 	0.090201585769039
scalar abilene_cost_network.node[2].content_store 	hits[2] 	9249
scalar abilene_cost_network.node[2].content_store 	misses[2] 	93288
scalar abilene_cost_network.node[2].content_store 	decision_yes[2] 	10625
scalar abilene_cost_network.node[2].content_store 	decision_no[2] 	82645
scalar abilene_cost_network.node[2].content_store 	decision_ratio[2] 	0.11391658625496
scalar abilene_cost_network.node[2].content_store 	correction_factor[2] 	0.013612850530901
scalar abilene_cost_network.node[2].content_store 	kappa[2] 	1
scalar abilene_cost_network.node[3].core_layer 	interests[3] 	84622
scalar abilene_cost_network.node[3].core_layer 	data[3] 	81880
scalar abilene_cost_network.node[3].content_store 	p_hit[3] 	0.032414738484082
scalar abilene_cost_network.node[3].content_store 	hits[3] 	2743
scalar abilene_cost_network.node[3].content_store 	misses[3] 	81879
scalar abilene_cost_network.node[3].content_store 	decision_yes[3] 	10626
scalar abilene_cost_network.node[3].content_store 	decision_no[3] 	71254
scalar abilene_cost_network.node[3].content_store 	decision_ratio[3] 	0.12977528089888
scalar abilene_cost_network.node[3].content_store 	correction_factor[3] 	0.013612850530901
scalar abilene_cost_network.node[3].content_store 	kappa[3] 	1
scalar abilene_cost_network.node[4].core_layer 	interests[4] 	81880
scalar abilene_cost_network.node[4].core_layer 	repo_load[4] 	77286
scalar abilene_cost_network.node[4].core_layer 	data[4] 	0
scalar abilene_cost_network.node[4].content_store 	p_hit[4] 	0.056106497313141
scalar abilene_cost_network.node[4].content_store 	hits[4] 	4594
scalar abilene_cost_network.node[4].content_store 	misses[4] 	77286
scalar abilene_cost_network.node[4].content_store 	decision_yes[4] 	10300
scalar abilene_cost_network.node[4].content_store 	decision_no[4] 	66986
scalar abilene_cost_network.node[4].content_store 	decision_ratio[4] 	0.13327122635406
scalar abilene_cost_network.node[4].content_store 	correction_factor[4] 	0.013612850530901
scalar abilene_cost_network.node[4].content_store 	kappa[4] 	1
scalar abilene_cost_network.node[5].core_layer 	interests[5] 	0
scalar abilene_cost_network.node[5].core_layer 	data[5] 	0
scalar abilene_cost_network.node[5].content_store 	p_hit[5] 	-nan
scalar abilene_cost_network.node[5].content_store 	hits[5] 	0
scalar abilene_cost_network.node[5].content_store 	misses[5] 	0
scalar abilene_cost_network.node[5].content_store 	decision_yes[5] 	0
scalar abilene_cost_network.node[5].content_store 	decision_no[5] 	0
scalar abilene_cost_network.node[5].content_store 	decision_ratio[5] 	0
scalar abilene_cost_network.node[5].content_store 	correction_factor[5] 	0.013612850530901
scalar abilene_cost_network.node[5].content_store 	kappa[5] 	1
scalar abilene_cost_network.node[6].core_layer 	interests[6] 	0
scalar abilene_cost_network.node[6].core_layer 	data[6] 	0
scalar abilene_cost_network.node[6].content_store 	p_hit[6] 	-nan
scalar abilene_cost_network.node[6].content_store 	hits[6] 	0
scalar abilene_cost_network.node[6].content_store 	misses[6] 	0
scalar abilene_cost_network.node[6].content_store 	decision_yes[6] 	0
scalar abilene_cost_network.node[6].content_store 	decision_no[6] 	0
scalar abilene_cost_network.node[6].content_store 	decision_ratio[6] 	0
scalar abilene_cost_network.node[6].content_store 	correction_factor[6] 	0.013612850530901
scalar abilene_cost_network.node[6].content_store 	kappa[6] 	1
scalar abilene_cost_network.node[7].core_layer 	interests[7] 	0
scalar abilene_cost_network.node[7].core_layer 	data[7] 	0
scalar abilene_cost_network.node[7].content_store 	p_hit[7] 	-nan
scalar abilene_cost_network.node[7].content_store 	hits[7] 	0
scalar abilene_cost_network.node[7].content_store 	misses[7] 	0
scalar abilene_cost_network.node[7].content_store 	decision_yes[7] 	0
scalar abilene_cost_network.node[7].content_store 	decision_no[7] 	0
scalar abilene_cost_network.node[7].content_store 	decision_ratio[7] 	0
scalar abilene_cost_network.node[7].content_store 	correction_factor[7] 	0.013612850530901
scalar abilene_cost_network.node[7].content_store 	kappa[7] 	1
scalar abilene_cost_network.node[8].core_layer 	interests[8] 	44482
scalar abilene_cost_network.node[8].core_layer 	data[8] 	31357
scalar abilene_cost_network.node[8].content_store 	p_hit[8] 	0.29506317161998
scalar abilene_cost_network.node[8].content_store 	hits[8] 	13125
scalar abilene_cost_network.node[8].content_store 	misses[8] 	31357
scalar abilene_cost_network.node[8].content_store 	decision_yes[8] 	3576
scalar abilene_cost_network.node[8].content_store 	decision_no[8] 	27781
scalar abilene_cost_network.node[8].content_store 	decision_ratio[8] 	0.11404152182926
scalar abilene_cost_network.node[8].content_store 	correction_factor[8] 	0.013612850530901
scalar abilene_cost_network.node[8].content_store 	kappa[8] 	1
scalar abilene_cost_network.node[9].core_layer 	interests[9] 	311734
scalar abilene_cost_network.node[9].core_layer 	repo_load[9] 	185852
scalar abilene_cost_network.node[9].core_layer 	data[9] 	110102
scalar abilene_cost_network.node[9].content_store 	p_hit[9] 	0.045092931794414
scalar abilene_cost_network.node[9].content_store 	hits[9] 	14057
scalar abilene_cost_network.node[9].content_store 	misses[9] 	297677
scalar abilene_cost_network.node[9].content_store 	decision_yes[9] 	3879
scalar abilene_cost_network.node[9].content_store 	decision_no[9] 	292075
scalar abilene_cost_network.node[9].content_store 	decision_ratio[9] 	0.013106766592106
scalar abilene_cost_network.node[9].content_store 	correction_factor[9] 	0.013612850530901
scalar abilene_cost_network.node[9].content_store 	kappa[9] 	1
scalar abilene_cost_network.node[10].core_layer 	interests[10] 	213868
scalar abilene_cost_network.node[10].core_layer 	data[10] 	195734
scalar abilene_cost_network.node[10].content_store 	p_hit[10] 	0.083626348962912
scalar abilene_cost_network.node[10].content_store 	hits[10] 	17885
scalar abilene_cost_network.node[10].content_store 	misses[10] 	195983
scalar abilene_cost_network.node[10].content_store 	decision_yes[10] 	370
scalar abilene_cost_network.node[10].content_store 	decision_no[10] 	195364
scalar abilene_cost_network.node[10].content_store 	decision_ratio[10] 	0.0018903205370554
scalar abilene_cost_network.node[10].content_store 	correction_factor[10] 	0.013612850530901
scalar abilene_cost_network.node[10].content_store 	kappa[10] 	1
scalar abilene_cost_network.client[0] 	hdistance[0] 	2.1670005147602
scalar abilene_cost_network.client[0] 	downloads[0] 	178724
scalar abilene_cost_network.client[0] 	avg_time[0] 	0.00878850871
scalar abilene_cost_network.client[1] 	hdistance[1] 	2.3417804939871
scalar abilene_cost_network.client[1] 	downloads[1] 	177535
scalar abilene_cost_network.client[1] 	avg_time[1] 	0.011714227547
scalar abilene_cost_network.client[9] 	hdistance[9] 	2.116619203516
scalar abilene_cost_network.client[9] 	downloads[9] 	178384
scalar abilene_cost_network.client[9] 	avg_time[9] 	0.009357695899
