version 2
run General-7-20140904-10:44:18-10713
attr D fix0.01
attr F spr
attr R lru
attr a 1
attr configname General
attr csize 1e3
attr ctlg 1e5
attr datetime 20140904-10:44:18
attr experiment General
attr inifile omnetpp.ini
attr iterationvars "$net=abilene_cost, $rep=10, $priceratiovalue=10, $weights=0.333_0.333_0.334, $lambda=100, $a=1, $ctlg=1e5, $F=spr, $ttl=10, $D=fix0.01, $xi=1, $R=lru, $csize=1e3, $pricebits=0, $window=60, $variance=0.05, $mytime=1800"
attr iterationvars2 "$net=abilene_cost, $rep=10, $priceratiovalue=10, $weights=0.333_0.333_0.334, $lambda=100, $a=1, $ctlg=1e5, $F=spr, $ttl=10, $D=fix0.01, $xi=1, $R=lru, $csize=1e3, $pricebits=0, $window=60, $variance=0.05, $mytime=1800, $repetition=0"
attr lambda 100
attr measurement "$net=abilene_cost, $rep=10, $priceratiovalue=10, $weights=0.333_0.333_0.334, $lambda=100, $a=1, $ctlg=1e5, $F=spr, $ttl=10, $D=fix0.01, $xi=1, $R=lru, $csize=1e3, $pricebits=0, $window=60, $variance=0.05, $mytime=1800"
attr mytime 1800
attr net abilene_cost
attr network networks.${net=abilene_cost}_network
attr pricebits 0
attr priceratiovalue 10
attr processid 10713
attr rep 10
attr repetition 0
attr replication #0
attr resultdir results
attr runnumber 7
attr seedset 10
attr ttl 10
attr variance 0.05
attr weights 0.333_0.333_0.334
attr window 60
attr xi 1

scalar . 	a 	1
scalar . 	csize 	1e3
scalar . 	ctlg 	1e5
scalar . 	lambda 	100
scalar . 	mytime 	1800
scalar . 	pricebits 	0
scalar . 	priceratiovalue 	10
scalar . 	rep 	10
scalar . 	ttl 	10
scalar . 	variance 	0.05
scalar . 	window 	60
scalar . 	xi 	1
scalar abilene_cost_network.content_distribution 	repo-0 	2
scalar abilene_cost_network.content_distribution 	repo-1 	7
scalar abilene_cost_network.content_distribution 	repo-2 	0
scalar abilene_cost_network.content_distribution 	client-0 	7
scalar abilene_cost_network.content_distribution 	client-1 	10
scalar abilene_cost_network.content_distribution 	client-2 	6
scalar abilene_cost_network.content_distribution 	repo-0_card 	33054
scalar abilene_cost_network.content_distribution 	repo-0_price 	1
scalar abilene_cost_network.content_distribution 	repo-1_card 	33533
scalar abilene_cost_network.content_distribution 	repo-1_price 	0
scalar abilene_cost_network.content_distribution 	repo-2_card 	33413
scalar abilene_cost_network.content_distribution 	repo-2_price 	10
scalar abilene_cost_network.statistics 	repo_popularity[0] 	0.39235916228158
scalar abilene_cost_network.statistics 	repo_popularity[1] 	0.27346308917966
scalar abilene_cost_network.statistics 	repo_popularity[2] 	0.33417774853877
scalar abilene_cost_network.statistics 	stabilization_time 	36060
scalar abilene_cost_network.statistics 	p_hit 	0.20669592446363
scalar abilene_cost_network.statistics 	interests 	113515.45454545
scalar abilene_cost_network.statistics 	data 	64392.272727273
scalar abilene_cost_network.statistics 	hdistance 	1.8340288572376
scalar abilene_cost_network.statistics 	avg_time 	0.008519669482
scalar abilene_cost_network.statistics 	downloads 	540299
scalar abilene_cost_network.statistics 	total_cost 	968536
scalar abilene_cost_network.statistics 	total_replicas 	100000
scalar abilene_cost_network.statistics 	inner_hit 	0.47772622196228
scalar abilene_cost_network.statistics 	interests_sent 	540359
scalar abilene_cost_network.node[0].core_layer 	interests[0] 	95445
scalar abilene_cost_network.node[0].core_layer 	repo_load[0] 	87720
scalar abilene_cost_network.node[0].core_layer 	data[0] 	0
scalar abilene_cost_network.node[0].core_layer 	repo_int[0] 	282184
scalar abilene_cost_network.node[0].content_store 	p_hit[0] 	0.080936665095081
scalar abilene_cost_network.node[0].content_store 	hits[0] 	7725
scalar abilene_cost_network.node[0].content_store 	misses[0] 	87720
scalar abilene_cost_network.node[0].content_store 	decision_yes[0] 	899
scalar abilene_cost_network.node[0].content_store 	decision_no[0] 	86821
scalar abilene_cost_network.node[0].content_store 	decision_ratio[0] 	0.010248518011856
scalar abilene_cost_network.node[1].core_layer 	interests[1] 	98962
scalar abilene_cost_network.node[1].core_layer 	data[1] 	93436
scalar abilene_cost_network.node[1].content_store 	p_hit[1] 	0.055849720094582
scalar abilene_cost_network.node[1].content_store 	hits[1] 	5527
scalar abilene_cost_network.node[1].content_store 	misses[1] 	93435
scalar abilene_cost_network.node[1].content_store 	decision_yes[1] 	896
scalar abilene_cost_network.node[1].content_store 	decision_no[1] 	92540
scalar abilene_cost_network.node[1].content_store 	decision_ratio[1] 	0.0095894516032364
scalar abilene_cost_network.node[2].core_layer 	interests[2] 	164064
scalar abilene_cost_network.node[2].core_layer 	repo_load[2] 	91336
scalar abilene_cost_network.node[2].core_layer 	data[2] 	62500
scalar abilene_cost_network.node[2].content_store 	p_hit[2] 	0.062347620440804
scalar abilene_cost_network.node[2].content_store 	hits[2] 	10229
scalar abilene_cost_network.node[2].content_store 	misses[2] 	153835
scalar abilene_cost_network.node[2].content_store 	decision_yes[2] 	1579
scalar abilene_cost_network.node[2].content_store 	decision_no[2] 	152257
scalar abilene_cost_network.node[2].content_store 	decision_ratio[2] 	0.010264177435711
scalar abilene_cost_network.node[3].core_layer 	interests[3] 	142812
scalar abilene_cost_network.node[3].core_layer 	data[3] 	130224
scalar abilene_cost_network.node[3].content_store 	p_hit[3] 	0.088150855670392
scalar abilene_cost_network.node[3].content_store 	hits[3] 	12589
scalar abilene_cost_network.node[3].content_store 	misses[3] 	130223
scalar abilene_cost_network.node[3].content_store 	decision_yes[3] 	1332
scalar abilene_cost_network.node[3].content_store 	decision_no[3] 	128892
scalar abilene_cost_network.node[3].content_store 	decision_ratio[3] 	0.010228529303354
scalar abilene_cost_network.node[4].core_layer 	interests[4] 	0
scalar abilene_cost_network.node[4].core_layer 	data[4] 	0
scalar abilene_cost_network.node[4].content_store 	p_hit[4] 	-nan
scalar abilene_cost_network.node[4].content_store 	hits[4] 	0
scalar abilene_cost_network.node[4].content_store 	misses[4] 	0
scalar abilene_cost_network.node[4].content_store 	decision_yes[4] 	0
scalar abilene_cost_network.node[4].content_store 	decision_no[4] 	0
scalar abilene_cost_network.node[4].content_store 	decision_ratio[4] 	0
scalar abilene_cost_network.node[5].core_layer 	interests[5] 	0
scalar abilene_cost_network.node[5].core_layer 	data[5] 	0
scalar abilene_cost_network.node[5].content_store 	p_hit[5] 	-nan
scalar abilene_cost_network.node[5].content_store 	hits[5] 	0
scalar abilene_cost_network.node[5].content_store 	misses[5] 	0
scalar abilene_cost_network.node[5].content_store 	decision_yes[5] 	0
scalar abilene_cost_network.node[5].content_store 	decision_no[5] 	0
scalar abilene_cost_network.node[5].content_store 	decision_ratio[5] 	0
scalar abilene_cost_network.node[6].core_layer 	interests[6] 	179478
scalar abilene_cost_network.node[6].core_layer 	data[6] 	109401
scalar abilene_cost_network.node[6].content_store 	p_hit[6] 	0.39030967583771
scalar abilene_cost_network.node[6].content_store 	hits[6] 	70052
scalar abilene_cost_network.node[6].content_store 	misses[6] 	109426
scalar abilene_cost_network.node[6].content_store 	decision_yes[6] 	1113
scalar abilene_cost_network.node[6].content_store 	decision_no[6] 	108288
scalar abilene_cost_network.node[6].content_store 	decision_ratio[6] 	0.010173581594318
scalar abilene_cost_network.node[7].core_layer 	interests[7] 	318527
scalar abilene_cost_network.node[7].core_layer 	repo_load[7] 	103128
scalar abilene_cost_network.node[7].core_layer 	data[7] 	142813
scalar abilene_cost_network.node[7].content_store 	p_hit[7] 	0.22778288810682
scalar abilene_cost_network.node[7].content_store 	hits[7] 	72555
scalar abilene_cost_network.node[7].content_store 	misses[7] 	245972
scalar abilene_cost_network.node[7].content_store 	decision_yes[7] 	2407
scalar abilene_cost_network.node[7].content_store 	decision_no[7] 	243534
scalar abilene_cost_network.node[7].content_store 	decision_ratio[7] 	0.009786900110189
scalar abilene_cost_network.node[8].core_layer 	interests[8] 	31675
scalar abilene_cost_network.node[8].core_layer 	data[8] 	28457
scalar abilene_cost_network.node[8].content_store 	p_hit[8] 	0.10159431728493
scalar abilene_cost_network.node[8].content_store 	hits[8] 	3218
scalar abilene_cost_network.node[8].content_store 	misses[8] 	28457
scalar abilene_cost_network.node[8].content_store 	decision_yes[8] 	289
scalar abilene_cost_network.node[8].content_store 	decision_no[8] 	28168
scalar abilene_cost_network.node[8].content_store 	decision_ratio[8] 	0.010155673472256
scalar abilene_cost_network.node[9].core_layer 	interests[9] 	37496
scalar abilene_cost_network.node[9].core_layer 	data[9] 	31675
scalar abilene_cost_network.node[9].content_store 	p_hit[9] 	0.1552432259441
scalar abilene_cost_network.node[9].content_store 	hits[9] 	5821
scalar abilene_cost_network.node[9].content_store 	misses[9] 	31675
scalar abilene_cost_network.node[9].content_store 	decision_yes[9] 	338
scalar abilene_cost_network.node[9].content_store 	decision_no[9] 	31337
scalar abilene_cost_network.node[9].content_store 	decision_ratio[9] 	0.010670876085241
scalar abilene_cost_network.node[10].core_layer 	interests[10] 	180211
scalar abilene_cost_network.node[10].core_layer 	data[10] 	109809
scalar abilene_cost_network.node[10].content_store 	p_hit[10] 	0.39053664870624
scalar abilene_cost_network.node[10].content_store 	hits[10] 	70379
scalar abilene_cost_network.node[10].content_store 	misses[10] 	109832
scalar abilene_cost_network.node[10].content_store 	decision_yes[10] 	1156
scalar abilene_cost_network.node[10].content_store 	decision_no[10] 	108653
scalar abilene_cost_network.node[10].content_store 	decision_ratio[10] 	0.010527370251983
scalar abilene_cost_network.client[6] 	hdistance[6] 	2.2001081063008
scalar abilene_cost_network.client[6] 	downloads[6] 	179453
scalar abilene_cost_network.client[6] 	avg_time[6] 	0.009851299226
scalar abilene_cost_network.client[6] 	interests_sent[6] 	179478
scalar abilene_cost_network.client[7] 	hdistance[7] 	1.6683069667549
scalar abilene_cost_network.client[7] 	downloads[7] 	180658
scalar abilene_cost_network.client[7] 	avg_time[7] 	0.006563447329
scalar abilene_cost_network.client[7] 	interests_sent[7] 	180670
scalar abilene_cost_network.client[10] 	hdistance[10] 	1.633671498657
scalar abilene_cost_network.client[10] 	downloads[10] 	180188
scalar abilene_cost_network.client[10] 	avg_time[10] 	0.009144261893
scalar abilene_cost_network.client[10] 	interests_sent[10] 	180211
