version 2
run General-7-20140904-11:20:48-24399
attr D fix0.01
attr F spr
attr R lru
attr a 1
attr configname General
attr csize 1e3
attr ctlg 1e5
attr datetime 20140904-11:20:48
attr experiment General
attr inifile omnetpp.ini
attr iterationvars "$net=abilene_cost, $rep=2, $priceratiovalue=10, $weights=0.333_0.333_0.334, $lambda=100, $a=1, $ctlg=1e5, $F=spr, $ttl=10, $D=fix0.01, $xi=1, $R=lru, $csize=1e3, $pricebits=0, $window=60, $variance=0.05, $mytime=1800"
attr iterationvars2 "$net=abilene_cost, $rep=2, $priceratiovalue=10, $weights=0.333_0.333_0.334, $lambda=100, $a=1, $ctlg=1e5, $F=spr, $ttl=10, $D=fix0.01, $xi=1, $R=lru, $csize=1e3, $pricebits=0, $window=60, $variance=0.05, $mytime=1800, $repetition=0"
attr lambda 100
attr measurement "$net=abilene_cost, $rep=2, $priceratiovalue=10, $weights=0.333_0.333_0.334, $lambda=100, $a=1, $ctlg=1e5, $F=spr, $ttl=10, $D=fix0.01, $xi=1, $R=lru, $csize=1e3, $pricebits=0, $window=60, $variance=0.05, $mytime=1800"
attr mytime 1800
attr net abilene_cost
attr network networks.${net=abilene_cost}_network
attr pricebits 0
attr priceratiovalue 10
attr processid 24399
attr rep 2
attr repetition 0
attr replication #0
attr resultdir results
attr runnumber 7
attr seedset 2
attr ttl 10
attr variance 0.05
attr weights 0.333_0.333_0.334
attr window 60
attr xi 1

scalar . 	a 	1
scalar . 	csize 	1e3
scalar . 	ctlg 	1e5
scalar . 	lambda 	100
scalar . 	mytime 	1800
scalar . 	pricebits 	0
scalar . 	priceratiovalue 	10
scalar . 	rep 	2
scalar . 	ttl 	10
scalar . 	variance 	0.05
scalar . 	window 	60
scalar . 	xi 	1
scalar abilene_cost_network.content_distribution 	repo-0 	4
scalar abilene_cost_network.content_distribution 	repo-1 	9
scalar abilene_cost_network.content_distribution 	repo-2 	6
scalar abilene_cost_network.content_distribution 	client-0 	3
scalar abilene_cost_network.content_distribution 	client-1 	7
scalar abilene_cost_network.content_distribution 	client-2 	9
scalar abilene_cost_network.content_distribution 	repo-0_card 	33329
scalar abilene_cost_network.content_distribution 	repo-0_price 	1
scalar abilene_cost_network.content_distribution 	repo-1_card 	33052
scalar abilene_cost_network.content_distribution 	repo-1_price 	10
scalar abilene_cost_network.content_distribution 	repo-2_card 	33619
scalar abilene_cost_network.content_distribution 	repo-2_price 	0
scalar abilene_cost_network.statistics 	repo_popularity[0] 	0.33984204835506
scalar abilene_cost_network.statistics 	repo_popularity[1] 	0.39407385110283
scalar abilene_cost_network.statistics 	repo_popularity[2] 	0.26608410054213
scalar abilene_cost_network.statistics 	stabilization_time 	36060
scalar abilene_cost_network.statistics 	p_hit 	0.2212945076089
scalar abilene_cost_network.statistics 	interests 	106496.09090909
scalar abilene_cost_network.statistics 	data 	57413.090909091
scalar abilene_cost_network.statistics 	hdistance 	1.6898515066661
scalar abilene_cost_network.statistics 	avg_time 	0.008470443082
scalar abilene_cost_network.statistics 	downloads 	539847
scalar abilene_cost_network.statistics 	total_cost 	1097625
scalar abilene_cost_network.statistics 	total_replicas 	100000
scalar abilene_cost_network.statistics 	inner_hit 	0.48025088589915
scalar abilene_cost_network.statistics 	interests_sent 	539914
scalar abilene_cost_network.node[0].core_layer 	interests[0] 	0
scalar abilene_cost_network.node[0].core_layer 	data[0] 	0
scalar abilene_cost_network.node[0].core_layer 	repo_int[0] 	280585
scalar abilene_cost_network.node[0].content_store 	p_hit[0] 	-nan
scalar abilene_cost_network.node[0].content_store 	hits[0] 	0
scalar abilene_cost_network.node[0].content_store 	misses[0] 	0
scalar abilene_cost_network.node[0].content_store 	decision_yes[0] 	0
scalar abilene_cost_network.node[0].content_store 	decision_no[0] 	0
scalar abilene_cost_network.node[0].content_store 	decision_ratio[0] 	0
scalar abilene_cost_network.node[1].core_layer 	interests[1] 	0
scalar abilene_cost_network.node[1].core_layer 	data[1] 	0
scalar abilene_cost_network.node[1].content_store 	p_hit[1] 	-nan
scalar abilene_cost_network.node[1].content_store 	hits[1] 	0
scalar abilene_cost_network.node[1].content_store 	misses[1] 	0
scalar abilene_cost_network.node[1].content_store 	decision_yes[1] 	0
scalar abilene_cost_network.node[1].content_store 	decision_no[1] 	0
scalar abilene_cost_network.node[1].content_store 	decision_ratio[1] 	0
scalar abilene_cost_network.node[2].core_layer 	interests[2] 	75489
scalar abilene_cost_network.node[2].core_layer 	data[2] 	67140
scalar abilene_cost_network.node[2].content_store 	p_hit[2] 	0.11059889520327
scalar abilene_cost_network.node[2].content_store 	hits[2] 	8349
scalar abilene_cost_network.node[2].content_store 	misses[2] 	67140
scalar abilene_cost_network.node[2].content_store 	decision_yes[2] 	649
scalar abilene_cost_network.node[2].content_store 	decision_no[2] 	66491
scalar abilene_cost_network.node[2].content_store 	decision_ratio[2] 	0.0096663687816503
scalar abilene_cost_network.node[3].core_layer 	interests[3] 	249900
scalar abilene_cost_network.node[3].core_layer 	data[3] 	176566
scalar abilene_cost_network.node[3].content_store 	p_hit[3] 	0.29338535414166
scalar abilene_cost_network.node[3].content_store 	hits[3] 	73317
scalar abilene_cost_network.node[3].content_store 	misses[3] 	176583
scalar abilene_cost_network.node[3].content_store 	decision_yes[3] 	1768
scalar abilene_cost_network.node[3].content_store 	decision_no[3] 	174798
scalar abilene_cost_network.node[3].content_store 	decision_ratio[3] 	0.010013252834634
scalar abilene_cost_network.node[4].core_layer 	interests[4] 	98466
scalar abilene_cost_network.node[4].core_layer 	repo_load[4] 	89435
scalar abilene_cost_network.node[4].core_layer 	data[4] 	0
scalar abilene_cost_network.node[4].content_store 	p_hit[4] 	0.091716937826255
scalar abilene_cost_network.node[4].content_store 	hits[4] 	9031
scalar abilene_cost_network.node[4].content_store 	misses[4] 	89435
scalar abilene_cost_network.node[4].content_store 	decision_yes[4] 	895
scalar abilene_cost_network.node[4].content_store 	decision_no[4] 	88540
scalar abilene_cost_network.node[4].content_store 	decision_ratio[4] 	0.010007267848158
scalar abilene_cost_network.node[5].core_layer 	interests[5] 	0
scalar abilene_cost_network.node[5].core_layer 	data[5] 	0
scalar abilene_cost_network.node[5].content_store 	p_hit[5] 	-nan
scalar abilene_cost_network.node[5].content_store 	hits[5] 	0
scalar abilene_cost_network.node[5].content_store 	misses[5] 	0
scalar abilene_cost_network.node[5].content_store 	decision_yes[5] 	0
scalar abilene_cost_network.node[5].content_store 	decision_no[5] 	0
scalar abilene_cost_network.node[5].content_store 	decision_ratio[5] 	0
scalar abilene_cost_network.node[6].core_layer 	interests[6] 	100265
scalar abilene_cost_network.node[6].core_layer 	repo_load[6] 	90331
scalar abilene_cost_network.node[6].core_layer 	data[6] 	0
scalar abilene_cost_network.node[6].content_store 	p_hit[6] 	0.099077444771356
scalar abilene_cost_network.node[6].content_store 	hits[6] 	9934
scalar abilene_cost_network.node[6].content_store 	misses[6] 	90331
scalar abilene_cost_network.node[6].content_store 	decision_yes[6] 	894
scalar abilene_cost_network.node[6].content_store 	decision_no[6] 	89437
scalar abilene_cost_network.node[6].content_store 	decision_ratio[6] 	0.009896934607167
scalar abilene_cost_network.node[7].core_layer 	interests[7] 	252890
scalar abilene_cost_network.node[7].core_layer 	data[7] 	177501
scalar abilene_cost_network.node[7].content_store 	p_hit[7] 	0.29795563288386
scalar abilene_cost_network.node[7].content_store 	hits[7] 	75350
scalar abilene_cost_network.node[7].content_store 	misses[7] 	177540
scalar abilene_cost_network.node[7].content_store 	decision_yes[7] 	1786
scalar abilene_cost_network.node[7].content_store 	decision_no[7] 	175715
scalar abilene_cost_network.node[7].content_store 	decision_ratio[7] 	0.01006191514414
scalar abilene_cost_network.node[8].core_layer 	interests[8] 	148003
scalar abilene_cost_network.node[8].core_layer 	data[8] 	136611
scalar abilene_cost_network.node[8].content_store 	p_hit[8] 	0.076903846543651
scalar abilene_cost_network.node[8].content_store 	hits[8] 	11382
scalar abilene_cost_network.node[8].content_store 	misses[8] 	136621
scalar abilene_cost_network.node[8].content_store 	decision_yes[8] 	1303
scalar abilene_cost_network.node[8].content_store 	decision_no[8] 	135308
scalar abilene_cost_network.node[8].content_store 	decision_ratio[8] 	0.0095380313444745
scalar abilene_cost_network.node[9].core_layer 	interests[9] 	246444
scalar abilene_cost_network.node[9].core_layer 	repo_load[9] 	100819
scalar abilene_cost_network.node[9].core_layer 	data[9] 	73726
scalar abilene_cost_network.node[9].content_store 	p_hit[9] 	0.29164434922335
scalar abilene_cost_network.node[9].content_store 	hits[9] 	71874
scalar abilene_cost_network.node[9].content_store 	misses[9] 	174570
scalar abilene_cost_network.node[9].content_store 	decision_yes[9] 	1764
scalar abilene_cost_network.node[9].content_store 	decision_no[9] 	172781
scalar abilene_cost_network.node[9].content_store 	decision_ratio[9] 	0.010106276318428
scalar abilene_cost_network.node[10].core_layer 	interests[10] 	0
scalar abilene_cost_network.node[10].core_layer 	data[10] 	0
scalar abilene_cost_network.node[10].content_store 	p_hit[10] 	-nan
scalar abilene_cost_network.node[10].content_store 	hits[10] 	0
scalar abilene_cost_network.node[10].content_store 	misses[10] 	0
scalar abilene_cost_network.node[10].content_store 	decision_yes[10] 	0
scalar abilene_cost_network.node[10].content_store 	decision_no[10] 	0
scalar abilene_cost_network.node[10].content_store 	decision_ratio[10] 	0
scalar abilene_cost_network.client[3] 	hdistance[3] 	1.6723177982835
scalar abilene_cost_network.client[3] 	downloads[3] 	179787
scalar abilene_cost_network.client[3] 	avg_time[3] 	0.00732786017
scalar abilene_cost_network.client[3] 	interests_sent[3] 	179803
scalar abilene_cost_network.client[7] 	hdistance[7] 	1.5193024494143
scalar abilene_cost_network.client[7] 	downloads[7] 	180288
scalar abilene_cost_network.client[7] 	avg_time[7] 	0.006957745115
scalar abilene_cost_network.client[7] 	interests_sent[7] 	180314
scalar abilene_cost_network.client[9] 	hdistance[9] 	1.8779342723005
scalar abilene_cost_network.client[9] 	downloads[9] 	179772
scalar abilene_cost_network.client[9] 	avg_time[9] 	0.011125723962
scalar abilene_cost_network.client[9] 	interests_sent[9] 	179797
