version 2
run General-15-20140904-11:52:59-24231
attr D fix0.01
attr F spr
attr R lru
attr a 1
attr configname General
attr csize 1e3
attr ctlg 1e5
attr datetime 20140904-11:52:59
attr experiment General
attr inifile omnetpp.ini
attr iterationvars "$net=abilene_cost, $rep=8, $priceratiovalue=10, $weights=0.333_0.333_0.334, $lambda=100, $a=1, $ctlg=1e5, $F=spr, $ttl=10, $D=fix0.01, $xi=1, $R=lru, $csize=1e3, $pricebits=0, $window=60, $variance=0.05, $mytime=1800"
attr iterationvars2 "$net=abilene_cost, $rep=8, $priceratiovalue=10, $weights=0.333_0.333_0.334, $lambda=100, $a=1, $ctlg=1e5, $F=spr, $ttl=10, $D=fix0.01, $xi=1, $R=lru, $csize=1e3, $pricebits=0, $window=60, $variance=0.05, $mytime=1800, $repetition=0"
attr lambda 100
attr measurement "$net=abilene_cost, $rep=8, $priceratiovalue=10, $weights=0.333_0.333_0.334, $lambda=100, $a=1, $ctlg=1e5, $F=spr, $ttl=10, $D=fix0.01, $xi=1, $R=lru, $csize=1e3, $pricebits=0, $window=60, $variance=0.05, $mytime=1800"
attr mytime 1800
attr net abilene_cost
attr network networks.${net=abilene_cost}_network
attr pricebits 0
attr priceratiovalue 10
attr processid 24231
attr rep 8
attr repetition 0
attr replication #0
attr resultdir results
attr runnumber 15
attr seedset 8
attr ttl 10
attr variance 0.05
attr weights 0.333_0.333_0.334
attr window 60
attr xi 1

scalar . 	a 	1
scalar . 	csize 	1e3
scalar . 	ctlg 	1e5
scalar . 	lambda 	100
scalar . 	mytime 	1800
scalar . 	pricebits 	0
scalar . 	priceratiovalue 	10
scalar . 	rep 	8
scalar . 	ttl 	10
scalar . 	variance 	0.05
scalar . 	window 	60
scalar . 	xi 	1
scalar abilene_cost_network.content_distribution 	repo-0 	4
scalar abilene_cost_network.content_distribution 	repo-1 	10
scalar abilene_cost_network.content_distribution 	repo-2 	6
scalar abilene_cost_network.content_distribution 	client-0 	2
scalar abilene_cost_network.content_distribution 	client-1 	8
scalar abilene_cost_network.content_distribution 	client-2 	4
scalar abilene_cost_network.content_distribution 	repo-0_card 	33478
scalar abilene_cost_network.content_distribution 	repo-0_price 	10
scalar abilene_cost_network.content_distribution 	repo-1_card 	33258
scalar abilene_cost_network.content_distribution 	repo-1_price 	0
scalar abilene_cost_network.content_distribution 	repo-2_card 	33264
scalar abilene_cost_network.content_distribution 	repo-2_price 	1
scalar abilene_cost_network.statistics 	repo_popularity[0] 	0.31428049746668
scalar abilene_cost_network.statistics 	repo_popularity[1] 	0.42959256184477
scalar abilene_cost_network.statistics 	repo_popularity[2] 	0.25612694068856
scalar abilene_cost_network.statistics 	stabilization_time 	36060
scalar abilene_cost_network.statistics 	p_hit 	0.22143303740949
scalar abilene_cost_network.statistics 	interests 	111085.09090909
scalar abilene_cost_network.statistics 	data 	62114
scalar abilene_cost_network.statistics 	hdistance 	1.7663710511671
scalar abilene_cost_network.statistics 	avg_time 	0.007345707163
scalar abilene_cost_network.statistics 	downloads 	538633
scalar abilene_cost_network.statistics 	total_cost 	1068835
scalar abilene_cost_network.statistics 	total_replicas 	100000
scalar abilene_cost_network.statistics 	inner_hit 	0.50236060545863
scalar abilene_cost_network.statistics 	interests_sent 	538681
scalar abilene_cost_network.node[0].core_layer 	interests[0] 	0
scalar abilene_cost_network.node[0].core_layer 	data[0] 	0
scalar abilene_cost_network.node[0].core_layer 	repo_int[0] 	268045
scalar abilene_cost_network.node[0].content_store 	p_hit[0] 	-nan
scalar abilene_cost_network.node[0].content_store 	hits[0] 	0
scalar abilene_cost_network.node[0].content_store 	misses[0] 	0
scalar abilene_cost_network.node[0].content_store 	decision_yes[0] 	0
scalar abilene_cost_network.node[0].content_store 	decision_no[0] 	0
scalar abilene_cost_network.node[0].content_store 	decision_ratio[0] 	0
scalar abilene_cost_network.node[1].core_layer 	interests[1] 	70921
scalar abilene_cost_network.node[1].core_layer 	data[1] 	61846
scalar abilene_cost_network.node[1].content_store 	p_hit[1] 	0.12795927863397
scalar abilene_cost_network.node[1].content_store 	hits[1] 	9075
scalar abilene_cost_network.node[1].content_store 	misses[1] 	61846
scalar abilene_cost_network.node[1].content_store 	decision_yes[1] 	598
scalar abilene_cost_network.node[1].content_store 	decision_no[1] 	61248
scalar abilene_cost_network.node[1].content_store 	decision_ratio[1] 	0.009669178281538
scalar abilene_cost_network.node[2].core_layer 	interests[2] 	251753
scalar abilene_cost_network.node[2].core_layer 	data[2] 	179460
scalar abilene_cost_network.node[2].content_store 	p_hit[2] 	0.28704325271198
scalar abilene_cost_network.node[2].content_store 	hits[2] 	72264
scalar abilene_cost_network.node[2].content_store 	misses[2] 	179489
scalar abilene_cost_network.node[2].content_store 	decision_yes[2] 	1769
scalar abilene_cost_network.node[2].content_store 	decision_no[2] 	177691
scalar abilene_cost_network.node[2].content_store 	decision_ratio[2] 	0.0098573498272596
scalar abilene_cost_network.node[3].core_layer 	interests[3] 	147176
scalar abilene_cost_network.node[3].core_layer 	data[3] 	136397
scalar abilene_cost_network.node[3].content_store 	p_hit[3] 	0.073232048703593
scalar abilene_cost_network.node[3].content_store 	hits[3] 	10778
scalar abilene_cost_network.node[3].content_store 	misses[3] 	136398
scalar abilene_cost_network.node[3].content_store 	decision_yes[3] 	1410
scalar abilene_cost_network.node[3].content_store 	decision_no[3] 	134987
scalar abilene_cost_network.node[3].content_store 	decision_ratio[3] 	0.010337470765486
scalar abilene_cost_network.node[4].core_layer 	interests[4] 	245319
scalar abilene_cost_network.node[4].core_layer 	repo_load[4] 	98499
scalar abilene_cost_network.node[4].core_layer 	data[4] 	75560
scalar abilene_cost_network.node[4].content_store 	p_hit[4] 	0.29041778256067
scalar abilene_cost_network.node[4].content_store 	hits[4] 	71245
scalar abilene_cost_network.node[4].content_store 	misses[4] 	174074
scalar abilene_cost_network.node[4].content_store 	decision_yes[4] 	1700
scalar abilene_cost_network.node[4].content_store 	decision_no[4] 	172359
scalar abilene_cost_network.node[4].content_store 	decision_ratio[4] 	0.0097668032104057
scalar abilene_cost_network.node[5].core_layer 	interests[5] 	36924
scalar abilene_cost_network.node[5].core_layer 	data[5] 	30650
scalar abilene_cost_network.node[5].content_store 	p_hit[5] 	0.1699165854187
scalar abilene_cost_network.node[5].content_store 	hits[5] 	6274
scalar abilene_cost_network.node[5].content_store 	misses[5] 	30650
scalar abilene_cost_network.node[5].content_store 	decision_yes[5] 	332
scalar abilene_cost_network.node[5].content_store 	decision_no[5] 	30318
scalar abilene_cost_network.node[5].content_store 	decision_ratio[5] 	0.010831973898858
scalar abilene_cost_network.node[6].core_layer 	interests[6] 	90376
scalar abilene_cost_network.node[6].core_layer 	repo_load[6] 	83845
scalar abilene_cost_network.node[6].core_layer 	data[6] 	0
scalar abilene_cost_network.node[6].content_store 	p_hit[6] 	0.0722647605559
scalar abilene_cost_network.node[6].content_store 	hits[6] 	6531
scalar abilene_cost_network.node[6].content_store 	misses[6] 	83845
scalar abilene_cost_network.node[6].content_store 	decision_yes[6] 	801
scalar abilene_cost_network.node[6].content_store 	decision_no[6] 	83044
scalar abilene_cost_network.node[6].content_store 	decision_ratio[6] 	0.0095533424771901
scalar abilene_cost_network.node[7].core_layer 	interests[7] 	70611
scalar abilene_cost_network.node[7].core_layer 	data[7] 	59726
scalar abilene_cost_network.node[7].content_store 	p_hit[7] 	0.15415445185594
scalar abilene_cost_network.node[7].content_store 	hits[7] 	10885
scalar abilene_cost_network.node[7].content_store 	misses[7] 	59726
scalar abilene_cost_network.node[7].content_store 	decision_yes[7] 	582
scalar abilene_cost_network.node[7].content_store 	decision_no[7] 	59144
scalar abilene_cost_network.node[7].content_store 	decision_ratio[7] 	0.0097444998827981
scalar abilene_cost_network.node[8].core_layer 	interests[8] 	179378
scalar abilene_cost_network.node[8].core_layer 	data[8] 	108694
scalar abilene_cost_network.node[8].content_store 	p_hit[8] 	0.39396693016981
scalar abilene_cost_network.node[8].content_store 	hits[8] 	70669
scalar abilene_cost_network.node[8].content_store 	misses[8] 	108709
scalar abilene_cost_network.node[8].content_store 	decision_yes[8] 	1124
scalar abilene_cost_network.node[8].content_store 	decision_no[8] 	107570
scalar abilene_cost_network.node[8].content_store 	decision_ratio[8] 	0.010340957182549
scalar abilene_cost_network.node[9].core_layer 	interests[9] 	36711
scalar abilene_cost_network.node[9].core_layer 	data[9] 	30921
scalar abilene_cost_network.node[9].content_store 	p_hit[9] 	0.15771839503146
scalar abilene_cost_network.node[9].content_store 	hits[9] 	5790
scalar abilene_cost_network.node[9].content_store 	misses[9] 	30921
scalar abilene_cost_network.node[9].content_store 	decision_yes[9] 	329
scalar abilene_cost_network.node[9].content_store 	decision_no[9] 	30592
scalar abilene_cost_network.node[9].content_store 	decision_ratio[9] 	0.010640018110669
scalar abilene_cost_network.node[10].core_layer 	interests[10] 	92767
scalar abilene_cost_network.node[10].core_layer 	repo_load[10] 	85701
scalar abilene_cost_network.node[10].core_layer 	data[10] 	0
scalar abilene_cost_network.node[10].content_store 	p_hit[10] 	0.076169327454806
scalar abilene_cost_network.node[10].content_store 	hits[10] 	7066
scalar abilene_cost_network.node[10].content_store 	misses[10] 	85701
scalar abilene_cost_network.node[10].content_store 	decision_yes[10] 	904
scalar abilene_cost_network.node[10].content_store 	decision_no[10] 	84797
scalar abilene_cost_network.node[10].content_store 	decision_ratio[10] 	0.010548301653423
scalar abilene_cost_network.client[2] 	hdistance[2] 	1.8292275737306
scalar abilene_cost_network.client[2] 	downloads[2] 	179098
scalar abilene_cost_network.client[2] 	avg_time[2] 	0.007172353826
scalar abilene_cost_network.client[2] 	interests_sent[2] 	179116
scalar abilene_cost_network.client[4] 	hdistance[4] 	1.6661467930644
scalar abilene_cost_network.client[4] 	downloads[4] 	180172
scalar abilene_cost_network.client[4] 	avg_time[4] 	0.006140657011
scalar abilene_cost_network.client[4] 	interests_sent[4] 	180187
scalar abilene_cost_network.client[8] 	hdistance[8] 	1.8037387867063
scalar abilene_cost_network.client[8] 	downloads[8] 	179363
scalar abilene_cost_network.client[8] 	avg_time[8] 	0.008724110654
scalar abilene_cost_network.client[8] 	interests_sent[8] 	179378
