version 2
run General-11-20140904-11:48:51-24218
attr D fix0.01
attr F spr
attr R lru
attr a 1
attr configname General
attr csize 1e3
attr ctlg 1e5
attr datetime 20140904-11:48:51
attr experiment General
attr inifile omnetpp.ini
attr iterationvars "$net=abilene_cost, $rep=7, $priceratiovalue=10, $weights=0.333_0.333_0.334, $lambda=100, $a=1, $ctlg=1e5, $F=spr, $ttl=10, $D=fix0.01, $xi=1, $R=lru, $csize=1e3, $pricebits=0, $window=60, $variance=0.05, $mytime=1800"
attr iterationvars2 "$net=abilene_cost, $rep=7, $priceratiovalue=10, $weights=0.333_0.333_0.334, $lambda=100, $a=1, $ctlg=1e5, $F=spr, $ttl=10, $D=fix0.01, $xi=1, $R=lru, $csize=1e3, $pricebits=0, $window=60, $variance=0.05, $mytime=1800, $repetition=0"
attr lambda 100
attr measurement "$net=abilene_cost, $rep=7, $priceratiovalue=10, $weights=0.333_0.333_0.334, $lambda=100, $a=1, $ctlg=1e5, $F=spr, $ttl=10, $D=fix0.01, $xi=1, $R=lru, $csize=1e3, $pricebits=0, $window=60, $variance=0.05, $mytime=1800"
attr mytime 1800
attr net abilene_cost
attr network networks.${net=abilene_cost}_network
attr pricebits 0
attr priceratiovalue 10
attr processid 24218
attr rep 7
attr repetition 0
attr replication #0
attr resultdir results
attr runnumber 11
attr seedset 7
attr ttl 10
attr variance 0.05
attr weights 0.333_0.333_0.334
attr window 60
attr xi 1

scalar . 	a 	1
scalar . 	csize 	1e3
scalar . 	ctlg 	1e5
scalar . 	lambda 	100
scalar . 	mytime 	1800
scalar . 	pricebits 	0
scalar . 	priceratiovalue 	10
scalar . 	rep 	7
scalar . 	ttl 	10
scalar . 	variance 	0.05
scalar . 	window 	60
scalar . 	xi 	1
scalar abilene_cost_network.content_distribution 	repo-0 	5
scalar abilene_cost_network.content_distribution 	repo-1 	4
scalar abilene_cost_network.content_distribution 	repo-2 	0
scalar abilene_cost_network.content_distribution 	client-0 	6
scalar abilene_cost_network.content_distribution 	client-1 	4
scalar abilene_cost_network.content_distribution 	client-2 	8
scalar abilene_cost_network.content_distribution 	repo-0_card 	33104
scalar abilene_cost_network.content_distribution 	repo-0_price 	10
scalar abilene_cost_network.content_distribution 	repo-1_card 	33509
scalar abilene_cost_network.content_distribution 	repo-1_price 	0
scalar abilene_cost_network.content_distribution 	repo-2_card 	33387
scalar abilene_cost_network.content_distribution 	repo-2_price 	1
scalar abilene_cost_network.statistics 	repo_popularity[0] 	0.32830784336445
scalar abilene_cost_network.statistics 	repo_popularity[1] 	0.32988541312008
scalar abilene_cost_network.statistics 	repo_popularity[2] 	0.34180674351549
scalar abilene_cost_network.statistics 	stabilization_time 	36060
scalar abilene_cost_network.statistics 	p_hit 	0.2078400497125
scalar abilene_cost_network.statistics 	interests 	116158.81818182
scalar abilene_cost_network.statistics 	data 	67094.818181818
scalar abilene_cost_network.statistics 	hdistance 	1.8745937980965
scalar abilene_cost_network.statistics 	avg_time 	0.007814430546
scalar abilene_cost_network.statistics 	downloads 	539662
scalar abilene_cost_network.statistics 	total_cost 	999585
scalar abilene_cost_network.statistics 	total_replicas 	100000
scalar abilene_cost_network.statistics 	inner_hit 	0.49213025931046
scalar abilene_cost_network.statistics 	interests_sent 	539709
scalar abilene_cost_network.node[0].core_layer 	interests[0] 	85259
scalar abilene_cost_network.node[0].core_layer 	repo_load[0] 	81005
scalar abilene_cost_network.node[0].core_layer 	data[0] 	0
scalar abilene_cost_network.node[0].core_layer 	repo_int[0] 	274078
scalar abilene_cost_network.node[0].content_store 	p_hit[0] 	0.049895025745083
scalar abilene_cost_network.node[0].content_store 	hits[0] 	4254
scalar abilene_cost_network.node[0].content_store 	misses[0] 	81005
scalar abilene_cost_network.node[0].content_store 	decision_yes[0] 	748
scalar abilene_cost_network.node[0].content_store 	decision_no[0] 	80257
scalar abilene_cost_network.node[0].content_store 	decision_ratio[0] 	0.0092339979013641
scalar abilene_cost_network.node[1].core_layer 	interests[1] 	91686
scalar abilene_cost_network.node[1].core_layer 	data[1] 	85260
scalar abilene_cost_network.node[1].content_store 	p_hit[1] 	0.070097942979299
scalar abilene_cost_network.node[1].content_store 	hits[1] 	6427
scalar abilene_cost_network.node[1].content_store 	misses[1] 	85259
scalar abilene_cost_network.node[1].content_store 	decision_yes[1] 	870
scalar abilene_cost_network.node[1].content_store 	decision_no[1] 	84390
scalar abilene_cost_network.node[1].content_store 	decision_ratio[1] 	0.010204081632653
scalar abilene_cost_network.node[2].core_layer 	interests[2] 	137208
scalar abilene_cost_network.node[2].core_layer 	data[2] 	126416
scalar abilene_cost_network.node[2].content_store 	p_hit[2] 	0.078581423823684
scalar abilene_cost_network.node[2].content_store 	hits[2] 	10782
scalar abilene_cost_network.node[2].content_store 	misses[2] 	126426
scalar abilene_cost_network.node[2].content_store 	decision_yes[2] 	1305
scalar abilene_cost_network.node[2].content_store 	decision_no[2] 	125111
scalar abilene_cost_network.node[2].content_store 	decision_ratio[2] 	0.010323060372105
scalar abilene_cost_network.node[3].core_layer 	interests[3] 	107541
scalar abilene_cost_network.node[3].core_layer 	data[3] 	97636
scalar abilene_cost_network.node[3].content_store 	p_hit[3] 	0.09207651035419
scalar abilene_cost_network.node[3].content_store 	hits[3] 	9902
scalar abilene_cost_network.node[3].content_store 	misses[3] 	97639
scalar abilene_cost_network.node[3].content_store 	decision_yes[3] 	972
scalar abilene_cost_network.node[3].content_store 	decision_no[3] 	96664
scalar abilene_cost_network.node[3].content_store 	decision_ratio[3] 	0.0099553443402024
scalar abilene_cost_network.node[4].core_layer 	interests[4] 	248069
scalar abilene_cost_network.node[4].core_layer 	repo_load[4] 	101215
scalar abilene_cost_network.node[4].core_layer 	data[4] 	75555
scalar abilene_cost_network.node[4].content_store 	p_hit[4] 	0.28736762755524
scalar abilene_cost_network.node[4].content_store 	hits[4] 	71287
scalar abilene_cost_network.node[4].content_store 	misses[4] 	176782
scalar abilene_cost_network.node[4].content_store 	decision_yes[4] 	1786
scalar abilene_cost_network.node[4].content_store 	decision_no[4] 	174984
scalar abilene_cost_network.node[4].content_store 	decision_ratio[4] 	0.01010352435368
scalar abilene_cost_network.node[5].core_layer 	interests[5] 	140434
scalar abilene_cost_network.node[5].core_layer 	repo_load[5] 	91858
scalar abilene_cost_network.node[5].core_layer 	data[5] 	35346
scalar abilene_cost_network.node[5].content_store 	p_hit[5] 	0.094207955338451
scalar abilene_cost_network.node[5].content_store 	hits[5] 	13230
scalar abilene_cost_network.node[5].content_store 	misses[5] 	127204
scalar abilene_cost_network.node[5].content_store 	decision_yes[5] 	1255
scalar abilene_cost_network.node[5].content_store 	decision_no[5] 	125949
scalar abilene_cost_network.node[5].content_store 	decision_ratio[5] 	0.0098660419483664
scalar abilene_cost_network.node[6].core_layer 	interests[6] 	212939
scalar abilene_cost_network.node[6].core_layer 	data[6] 	141831
scalar abilene_cost_network.node[6].content_store 	p_hit[6] 	0.33387026331485
scalar abilene_cost_network.node[6].content_store 	hits[6] 	71094
scalar abilene_cost_network.node[6].content_store 	misses[6] 	141845
scalar abilene_cost_network.node[6].content_store 	decision_yes[6] 	1349
scalar abilene_cost_network.node[6].content_store 	decision_no[6] 	140482
scalar abilene_cost_network.node[6].content_store 	decision_ratio[6] 	0.0095113198101966
scalar abilene_cost_network.node[7].core_layer 	interests[7] 	74136
scalar abilene_cost_network.node[7].core_layer 	data[7] 	66962
scalar abilene_cost_network.node[7].content_store 	p_hit[7] 	0.096768101866839
scalar abilene_cost_network.node[7].content_store 	hits[7] 	7174
scalar abilene_cost_network.node[7].content_store 	misses[7] 	66962
scalar abilene_cost_network.node[7].content_store 	decision_yes[7] 	648
scalar abilene_cost_network.node[7].content_store 	decision_no[7] 	66314
scalar abilene_cost_network.node[7].content_store 	decision_ratio[7] 	0.0096771303127147
scalar abilene_cost_network.node[8].core_layer 	interests[8] 	180475
scalar abilene_cost_network.node[8].core_layer 	data[8] 	109037
scalar abilene_cost_network.node[8].content_store 	p_hit[8] 	0.39571685829062
scalar abilene_cost_network.node[8].content_store 	hits[8] 	71417
scalar abilene_cost_network.node[8].content_store 	misses[8] 	109058
scalar abilene_cost_network.node[8].content_store 	decision_yes[8] 	1107
scalar abilene_cost_network.node[8].content_store 	decision_no[8] 	107930
scalar abilene_cost_network.node[8].content_store 	decision_ratio[8] 	0.010152517035502
scalar abilene_cost_network.node[9].core_layer 	interests[9] 	0
scalar abilene_cost_network.node[9].core_layer 	data[9] 	0
scalar abilene_cost_network.node[9].content_store 	p_hit[9] 	-nan
scalar abilene_cost_network.node[9].content_store 	hits[9] 	0
scalar abilene_cost_network.node[9].content_store 	misses[9] 	0
scalar abilene_cost_network.node[9].content_store 	decision_yes[9] 	0
scalar abilene_cost_network.node[9].content_store 	decision_no[9] 	0
scalar abilene_cost_network.node[9].content_store 	decision_ratio[9] 	0
scalar abilene_cost_network.node[10].core_layer 	interests[10] 	0
scalar abilene_cost_network.node[10].core_layer 	data[10] 	0
scalar abilene_cost_network.node[10].content_store 	p_hit[10] 	-nan
scalar abilene_cost_network.node[10].content_store 	hits[10] 	0
scalar abilene_cost_network.node[10].content_store 	misses[10] 	0
scalar abilene_cost_network.node[10].content_store 	decision_yes[10] 	0
scalar abilene_cost_network.node[10].content_store 	decision_no[10] 	0
scalar abilene_cost_network.node[10].content_store 	decision_ratio[10] 	0
scalar abilene_cost_network.client[4] 	hdistance[4] 	1.4553260863497
scalar abilene_cost_network.client[4] 	downloads[4] 	179109
scalar abilene_cost_network.client[4] 	avg_time[4] 	0.005574122437
scalar abilene_cost_network.client[4] 	interests_sent[4] 	179121
scalar abilene_cost_network.client[6] 	hdistance[6] 	1.9815046169051
scalar abilene_cost_network.client[6] 	downloads[6] 	180099
scalar abilene_cost_network.client[6] 	avg_time[6] 	0.0079342051
scalar abilene_cost_network.client[6] 	interests_sent[6] 	180113
scalar abilene_cost_network.client[8] 	hdistance[8] 	2.1869506910348
scalar abilene_cost_network.client[8] 	downloads[8] 	180454
scalar abilene_cost_network.client[8] 	avg_time[8] 	0.009934964102
scalar abilene_cost_network.client[8] 	interests_sent[8] 	180475
