version 2
run General-15-20140904-11:32:10-24429
attr D fix0.01
attr F spr
attr R lru
attr a 1
attr configname General
attr csize 1e3
attr ctlg 1e5
attr datetime 20140904-11:32:10
attr experiment General
attr inifile omnetpp.ini
attr iterationvars "$net=abilene_cost, $rep=4, $priceratiovalue=10, $weights=0.333_0.333_0.334, $lambda=100, $a=1, $ctlg=1e5, $F=spr, $ttl=10, $D=fix0.01, $xi=1, $R=lru, $csize=1e3, $pricebits=0, $window=60, $variance=0.05, $mytime=1800"
attr iterationvars2 "$net=abilene_cost, $rep=4, $priceratiovalue=10, $weights=0.333_0.333_0.334, $lambda=100, $a=1, $ctlg=1e5, $F=spr, $ttl=10, $D=fix0.01, $xi=1, $R=lru, $csize=1e3, $pricebits=0, $window=60, $variance=0.05, $mytime=1800, $repetition=0"
attr lambda 100
attr measurement "$net=abilene_cost, $rep=4, $priceratiovalue=10, $weights=0.333_0.333_0.334, $lambda=100, $a=1, $ctlg=1e5, $F=spr, $ttl=10, $D=fix0.01, $xi=1, $R=lru, $csize=1e3, $pricebits=0, $window=60, $variance=0.05, $mytime=1800"
attr mytime 1800
attr net abilene_cost
attr network networks.${net=abilene_cost}_network
attr pricebits 0
attr priceratiovalue 10
attr processid 24429
attr rep 4
attr repetition 0
attr replication #0
attr resultdir results
attr runnumber 15
attr seedset 4
attr ttl 10
attr variance 0.05
attr weights 0.333_0.333_0.334
attr window 60
attr xi 1

scalar . 	a 	1
scalar . 	csize 	1e3
scalar . 	ctlg 	1e5
scalar . 	lambda 	100
scalar . 	mytime 	1800
scalar . 	pricebits 	0
scalar . 	priceratiovalue 	10
scalar . 	rep 	4
scalar . 	ttl 	10
scalar . 	variance 	0.05
scalar . 	window 	60
scalar . 	xi 	1
scalar abilene_cost_network.content_distribution 	repo-0 	2
scalar abilene_cost_network.content_distribution 	repo-1 	0
scalar abilene_cost_network.content_distribution 	repo-2 	10
scalar abilene_cost_network.content_distribution 	client-0 	6
scalar abilene_cost_network.content_distribution 	client-1 	2
scalar abilene_cost_network.content_distribution 	client-2 	4
scalar abilene_cost_network.content_distribution 	repo-0_card 	33274
scalar abilene_cost_network.content_distribution 	repo-0_price 	0
scalar abilene_cost_network.content_distribution 	repo-1_card 	33153
scalar abilene_cost_network.content_distribution 	repo-1_price 	1
scalar abilene_cost_network.content_distribution 	repo-2_card 	33573
scalar abilene_cost_network.content_distribution 	repo-2_price 	10
scalar abilene_cost_network.statistics 	repo_popularity[0] 	0.33945880017902
scalar abilene_cost_network.statistics 	repo_popularity[1] 	0.30988277584688
scalar abilene_cost_network.statistics 	repo_popularity[2] 	0.35065842397411
scalar abilene_cost_network.statistics 	stabilization_time 	36060
scalar abilene_cost_network.statistics 	p_hit 	0.18504072883324
scalar abilene_cost_network.statistics 	interests 	128544.18181818
scalar abilene_cost_network.statistics 	data 	79453
scalar abilene_cost_network.statistics 	hdistance 	2.1340872386097
scalar abilene_cost_network.statistics 	avg_time 	0.010070644255
scalar abilene_cost_network.statistics 	downloads 	539914
scalar abilene_cost_network.statistics 	total_cost 	961818
scalar abilene_cost_network.statistics 	total_replicas 	100000
scalar abilene_cost_network.statistics 	inner_hit 	0.48469200650474
scalar abilene_cost_network.statistics 	interests_sent 	540009
scalar abilene_cost_network.node[0].core_layer 	interests[0] 	91872
scalar abilene_cost_network.node[0].core_layer 	repo_load[0] 	84538
scalar abilene_cost_network.node[0].core_layer 	data[0] 	0
scalar abilene_cost_network.node[0].core_layer 	repo_int[0] 	278222
scalar abilene_cost_network.node[0].content_store 	p_hit[0] 	0.079828456983629
scalar abilene_cost_network.node[0].content_store 	hits[0] 	7334
scalar abilene_cost_network.node[0].content_store 	misses[0] 	84538
scalar abilene_cost_network.node[0].content_store 	decision_yes[0] 	866
scalar abilene_cost_network.node[0].content_store 	decision_no[0] 	83672
scalar abilene_cost_network.node[0].content_store 	decision_ratio[0] 	0.010243913979512
scalar abilene_cost_network.node[1].core_layer 	interests[1] 	169554
scalar abilene_cost_network.node[1].core_layer 	data[1] 	158252
scalar abilene_cost_network.node[1].content_store 	p_hit[1] 	0.06666312797103
scalar abilene_cost_network.node[1].content_store 	hits[1] 	11303
scalar abilene_cost_network.node[1].content_store 	misses[1] 	158251
scalar abilene_cost_network.node[1].content_store 	decision_yes[1] 	1510
scalar abilene_cost_network.node[1].content_store 	decision_no[1] 	156742
scalar abilene_cost_network.node[1].content_store 	decision_ratio[1] 	0.0095417435482648
scalar abilene_cost_network.node[2].core_layer 	interests[2] 	346163
scalar abilene_cost_network.node[2].core_layer 	repo_load[2] 	105956
scalar abilene_cost_network.node[2].core_layer 	data[2] 	169555
scalar abilene_cost_network.node[2].content_store 	p_hit[2] 	0.20392705170685
scalar abilene_cost_network.node[2].content_store 	hits[2] 	70592
scalar abilene_cost_network.node[2].content_store 	misses[2] 	275571
scalar abilene_cost_network.node[2].content_store 	decision_yes[2] 	2702
scalar abilene_cost_network.node[2].content_store 	decision_no[2] 	272809
scalar abilene_cost_network.node[2].content_store 	decision_ratio[2] 	0.0098072309272588
scalar abilene_cost_network.node[3].core_layer 	interests[3] 	177477
scalar abilene_cost_network.node[3].core_layer 	data[3] 	166260
scalar abilene_cost_network.node[3].content_store 	p_hit[3] 	0.063112403297329
scalar abilene_cost_network.node[3].content_store 	hits[3] 	11201
scalar abilene_cost_network.node[3].content_store 	misses[3] 	166276
scalar abilene_cost_network.node[3].content_store 	decision_yes[3] 	1645
scalar abilene_cost_network.node[3].content_store 	decision_no[3] 	164615
scalar abilene_cost_network.node[3].content_store 	decision_ratio[3] 	0.0098941417057621
scalar abilene_cost_network.node[4].core_layer 	interests[4] 	180072
scalar abilene_cost_network.node[4].core_layer 	data[4] 	109589
scalar abilene_cost_network.node[4].content_store 	p_hit[4] 	0.39126571593585
scalar abilene_cost_network.node[4].content_store 	hits[4] 	70456
scalar abilene_cost_network.node[4].content_store 	misses[4] 	109616
scalar abilene_cost_network.node[4].content_store 	decision_yes[4] 	1072
scalar abilene_cost_network.node[4].content_store 	decision_no[4] 	108517
scalar abilene_cost_network.node[4].content_store 	decision_ratio[4] 	0.0097820036682514
scalar abilene_cost_network.node[5].core_layer 	interests[5] 	0
scalar abilene_cost_network.node[5].core_layer 	data[5] 	0
scalar abilene_cost_network.node[5].content_store 	p_hit[5] 	-nan
scalar abilene_cost_network.node[5].content_store 	hits[5] 	0
scalar abilene_cost_network.node[5].content_store 	misses[5] 	0
scalar abilene_cost_network.node[5].content_store 	decision_yes[5] 	0
scalar abilene_cost_network.node[5].content_store 	decision_no[5] 	0
scalar abilene_cost_network.node[5].content_store 	decision_ratio[5] 	0
scalar abilene_cost_network.node[6].core_layer 	interests[6] 	180033
scalar abilene_cost_network.node[6].core_layer 	data[6] 	109998
scalar abilene_cost_network.node[6].content_store 	p_hit[6] 	0.38881205112396
scalar abilene_cost_network.node[6].content_store 	hits[6] 	69999
scalar abilene_cost_network.node[6].content_store 	misses[6] 	110034
scalar abilene_cost_network.node[6].content_store 	decision_yes[6] 	1153
scalar abilene_cost_network.node[6].content_store 	decision_no[6] 	108845
scalar abilene_cost_network.node[6].content_store 	decision_ratio[6] 	0.010482008763796
scalar abilene_cost_network.node[7].core_layer 	interests[7] 	109996
scalar abilene_cost_network.node[7].core_layer 	data[7] 	101857
scalar abilene_cost_network.node[7].content_store 	p_hit[7] 	0.074002691006946
scalar abilene_cost_network.node[7].content_store 	hits[7] 	8140
scalar abilene_cost_network.node[7].content_store 	misses[7] 	101856
scalar abilene_cost_network.node[7].content_store 	decision_yes[7] 	1002
scalar abilene_cost_network.node[7].content_store 	decision_no[7] 	100855
scalar abilene_cost_network.node[7].content_store 	decision_ratio[7] 	0.0098373209499593
scalar abilene_cost_network.node[8].core_layer 	interests[8] 	33968
scalar abilene_cost_network.node[8].core_layer 	data[8] 	30304
scalar abilene_cost_network.node[8].content_store 	p_hit[8] 	0.10786622703721
scalar abilene_cost_network.node[8].content_store 	hits[8] 	3664
scalar abilene_cost_network.node[8].content_store 	misses[8] 	30304
scalar abilene_cost_network.node[8].content_store 	decision_yes[8] 	295
scalar abilene_cost_network.node[8].content_store 	decision_no[8] 	30009
scalar abilene_cost_network.node[8].content_store 	decision_ratio[8] 	0.0097346884899683
scalar abilene_cost_network.node[9].core_layer 	interests[9] 	30304
scalar abilene_cost_network.node[9].core_layer 	data[9] 	28168
scalar abilene_cost_network.node[9].content_store 	p_hit[9] 	0.070518743400211
scalar abilene_cost_network.node[9].content_store 	hits[9] 	2137
scalar abilene_cost_network.node[9].content_store 	misses[9] 	28167
scalar abilene_cost_network.node[9].content_store 	decision_yes[9] 	286
scalar abilene_cost_network.node[9].content_store 	decision_no[9] 	27882
scalar abilene_cost_network.node[9].content_store 	decision_ratio[9] 	0.010153365521159
scalar abilene_cost_network.node[10].core_layer 	interests[10] 	94547
scalar abilene_cost_network.node[10].core_layer 	repo_load[10] 	87728
scalar abilene_cost_network.node[10].core_layer 	data[10] 	0
scalar abilene_cost_network.node[10].content_store 	p_hit[10] 	0.072122859530181
scalar abilene_cost_network.node[10].content_store 	hits[10] 	6819
scalar abilene_cost_network.node[10].content_store 	misses[10] 	87728
scalar abilene_cost_network.node[10].content_store 	decision_yes[10] 	885
scalar abilene_cost_network.node[10].content_store 	decision_no[10] 	86843
scalar abilene_cost_network.node[10].content_store 	decision_ratio[10] 	0.010087999270472
scalar abilene_cost_network.client[2] 	hdistance[2] 	1.3431273349938
scalar abilene_cost_network.client[2] 	downloads[2] 	179872
scalar abilene_cost_network.client[2] 	avg_time[2] 	0.006375947532
scalar abilene_cost_network.client[2] 	interests_sent[2] 	179904
scalar abilene_cost_network.client[4] 	hdistance[4] 	2.3956010997251
scalar abilene_cost_network.client[4] 	downloads[4] 	180045
scalar abilene_cost_network.client[4] 	avg_time[4] 	0.009636297728
scalar abilene_cost_network.client[4] 	interests_sent[4] 	180072
scalar abilene_cost_network.client[6] 	hdistance[6] 	2.6635332811102
scalar abilene_cost_network.client[6] 	downloads[6] 	179997
scalar abilene_cost_network.client[6] 	avg_time[6] 	0.014199687505
scalar abilene_cost_network.client[6] 	interests_sent[6] 	180033
