version 2
run General-0-20150728-14:25:44-27741
attr C 1e2
attr D lce
attr F spr
attr R lru_repr
attr a 1
attr brates 0.3_0.7_1.5_2.5_3.5
attr configname General
attr ctlg 1e4
attr datetime 20150728-14:25:44
attr experiment General
attr inifile omnetpp.ini
attr iterationvars "$net=video_simple_scenario, $rep=0, $lambda=100, $a=1, $ctlg=1e4, $brates=0.3_0.7_1.5_2.5_3.5, $F=spr, $ttl=1000, $D=lce, $R=lru_repr, $C=1e2, $window=60, $variance=0.05, $mytime=180000"
attr iterationvars2 "$net=video_simple_scenario, $rep=0, $lambda=100, $a=1, $ctlg=1e4, $brates=0.3_0.7_1.5_2.5_3.5, $F=spr, $ttl=1000, $D=lce, $R=lru_repr, $C=1e2, $window=60, $variance=0.05, $mytime=180000, $repetition=0"
attr lambda 100
attr measurement "$net=video_simple_scenario, $rep=0, $lambda=100, $a=1, $ctlg=1e4, $brates=0.3_0.7_1.5_2.5_3.5, $F=spr, $ttl=1000, $D=lce, $R=lru_repr, $C=1e2, $window=60, $variance=0.05, $mytime=180000"
attr mytime 180000
attr net video_simple_scenario
attr network networks.${net=video_simple_scenario}_network
attr processid 27741
attr rep 0
attr repetition 0
attr replication #0
attr resultdir results
attr runnumber 0
attr seedset 0
attr ttl 1000
attr variance 0.05
attr window 60

scalar . 	C 	1e2
scalar . 	a 	1
scalar . 	ctlg 	1e4
scalar . 	lambda 	100
scalar . 	mytime 	180000
scalar . 	rep 	0
scalar . 	ttl 	1000
scalar . 	variance 	0.05
scalar . 	window 	60
scalar video_simple_scenario_network.content_distribution 	repo-0 	0
scalar video_simple_scenario_network.content_distribution 	client-0 	1
scalar video_simple_scenario_network.content_distribution 	repo-0_card 	10000
scalar video_simple_scenario_network.content_distribution 	repo-0_price 	0
scalar video_simple_scenario_network.statistics 	stabilization_time 	36060
scalar video_simple_scenario_network.statistics 	p_hit 	0.30299254105897
scalar video_simple_scenario_network.statistics 	interests 	16843946
scalar video_simple_scenario_network.statistics 	data 	5870178
scalar video_simple_scenario_network.statistics 	hdistance 	0.86546480527037
scalar video_simple_scenario_network.statistics 	avg_time 	0
scalar video_simple_scenario_network.statistics 	downloads 	17993589
scalar video_simple_scenario_network.statistics 	total_cost 	0
scalar video_simple_scenario_network.statistics 	total_replicas 	10000
scalar video_simple_scenario_network.statistics 	"representations_downloaded 0.526624:0.0525493:0.0397015:0.0335997:0.347526:" 	0
scalar video_simple_scenario_network.statistics 	"slots_per_representation 100:233:500:833:1167:" 	0
scalar video_simple_scenario_network.statistics 	inner_hit 	0.34752561037156
scalar video_simple_scenario_network.statistics 	execution_time 	709
scalar video_simple_scenario_network.node[0].core_layer 	interests[0] 	11740356
scalar video_simple_scenario_network.node[0].core_layer 	repo_load[0] 	11740356
scalar video_simple_scenario_network.node[0].core_layer 	data[0] 	0
scalar video_simple_scenario_network.node[0].core_layer 	slots_sent[face$o[1]->client[0]] 	0
scalar video_simple_scenario_network.node[0].core_layer 	slots_sent[face$o[2]->node[1]] 	2945672987
scalar video_simple_scenario_network.node[0].content_store 	p_hit[0] 	0
scalar video_simple_scenario_network.node[0].content_store 	hits[0] 	0
scalar video_simple_scenario_network.node[0].content_store 	misses[0] 	11740356
scalar video_simple_scenario_network.node[0].content_store 	decision_yes[0] 	0
scalar video_simple_scenario_network.node[0].content_store 	decision_no[0] 	11740356
scalar video_simple_scenario_network.node[0].content_store 	decision_ratio[0] 	0
scalar video_simple_scenario_network.node[0].content_store 	"representation_breakdown[0] 0:0:0:0:0:" 	0
scalar video_simple_scenario_network.node[1].core_layer 	interests[1] 	21947536
scalar video_simple_scenario_network.node[1].core_layer 	data[1] 	11740356
scalar video_simple_scenario_network.node[1].core_layer 	slots_sent[face$o[1]->client[1]] 	9326221601
scalar video_simple_scenario_network.node[1].core_layer 	slots_sent[face$o[2]->node[0]] 	0
scalar video_simple_scenario_network.node[1].content_store 	p_hit[1] 	0.46507179667002
scalar video_simple_scenario_network.node[1].content_store 	hits[1] 	10207180
scalar video_simple_scenario_network.node[1].content_store 	misses[1] 	11740356
scalar video_simple_scenario_network.node[1].content_store 	decision_yes[1] 	11740356
scalar video_simple_scenario_network.node[1].content_store 	decision_no[1] 	0
scalar video_simple_scenario_network.node[1].content_store 	decision_ratio[1] 	1
scalar video_simple_scenario_network.node[1].content_store 	"representation_breakdown[1] 403:75:26:10:32:" 	0
scalar video_simple_scenario_network.node[1].proactive_component 	hdistance[1].proactive_component 	2
scalar video_simple_scenario_network.node[1].proactive_component 	downloads[1].proactive_component 	4746928
scalar video_simple_scenario_network.node[1].proactive_component 	avg_time[1].proactive_component 	0
scalar video_simple_scenario_network.client[1] 	hdistance[1].real 	0.86546480527037
scalar video_simple_scenario_network.client[1] 	downloads[1].real 	17993589
scalar video_simple_scenario_network.client[1] 	avg_time[1].real 	0
