version 2
run General-4-20150405-03:26:27-25366
attr D costaware0.01
attr F nrr
attr R lru
attr a 0.8
attr configname General
attr csize 1e3
attr ctlg 1e5
attr datetime 20150405-03:26:27
attr experiment General
attr inifile omnetpp.ini
attr iterationvars "$rep=6, $net=cost_scenario, $lambda=100, $a=0.8, $ctlg=1e5, $F=nrr, $ttl=10, $D=costaware0.01, $R=lru, $csize=1e3, $window=60, $variance=0.05, $mytime=1800000, $kappa=1, $priceratiovalue=100, $splits=0.5_0.25_0.25, $pricebits=0"
attr iterationvars2 "$rep=6, $net=cost_scenario, $lambda=100, $a=0.8, $ctlg=1e5, $F=nrr, $ttl=10, $D=costaware0.01, $R=lru, $csize=1e3, $window=60, $variance=0.05, $mytime=1800000, $kappa=1, $priceratiovalue=100, $splits=0.5_0.25_0.25, $pricebits=0, $repetition=0"
attr kappa 1
attr lambda 100
attr measurement "$rep=6, $net=cost_scenario, $lambda=100, $a=0.8, $ctlg=1e5, $F=nrr, $ttl=10, $D=costaware0.01, $R=lru, $csize=1e3, $window=60, $variance=0.05, $mytime=1800000, $kappa=1, $priceratiovalue=100, $splits=0.5_0.25_0.25, $pricebits=0"
attr mytime 1800000
attr net cost_scenario
attr network networks.${net=cost_scenario}_network
attr pricebits 0
attr priceratiovalue 100
attr processid 25366
attr rep 6
attr repetition 0
attr replication #0
attr resultdir results
attr runnumber 4
attr seedset 6
attr splits 0.5_0.25_0.25
attr ttl 10
attr variance 0.05
attr window 60

scalar . 	a 	0.8
scalar . 	csize 	1e3
scalar . 	ctlg 	1e5
scalar . 	kappa 	1
scalar . 	lambda 	100
scalar . 	mytime 	1800000
scalar . 	pricebits 	0
scalar . 	priceratiovalue 	100
scalar . 	rep 	6
scalar . 	ttl 	10
scalar . 	variance 	0.05
scalar . 	window 	60
scalar cost_scenario_network.content_distribution 	repo-0 	1
scalar cost_scenario_network.content_distribution 	repo-1 	2
scalar cost_scenario_network.content_distribution 	repo-2 	3
scalar cost_scenario_network.content_distribution 	client-0 	0
scalar cost_scenario_network.content_distribution 	repo-0_card 	49916
scalar cost_scenario_network.content_distribution 	repo-0_price 	100
scalar cost_scenario_network.content_distribution 	repo-1_card 	24980
scalar cost_scenario_network.content_distribution 	repo-1_price 	1
scalar cost_scenario_network.content_distribution 	repo-2_card 	25104
scalar cost_scenario_network.content_distribution 	repo-2_price 	0
scalar cost_scenario_network.statistics 	repo_popularity[0] 	0.51278152396975
scalar cost_scenario_network.statistics 	repo_popularity[1] 	0.24748041800973
scalar cost_scenario_network.statistics 	repo_popularity[2] 	0.23973805802051
scalar cost_scenario_network.statistics 	stabilization_time 	709.5
scalar cost_scenario_network.statistics 	p_hit 	0.13572735826192
scalar cost_scenario_network.statistics 	interests 	79245401.5
scalar cost_scenario_network.statistics 	data 	34244816.25
scalar cost_scenario_network.statistics 	hdistance 	1.5219720392426
scalar cost_scenario_network.statistics 	avg_time 	0
scalar cost_scenario_network.statistics 	downloads 	180002341
scalar cost_scenario_network.statistics 	total_cost 	5991895371
scalar cost_scenario_network.statistics 	total_replicas 	100000
scalar cost_scenario_network.statistics 	inner_hit 	0.23901398037929
scalar cost_scenario_network.statistics 	interests_sent 	180002341
scalar cost_scenario_network.node[0].core_layer 	interests[0] 	180002341
scalar cost_scenario_network.node[0].core_layer 	data[0] 	136979265
scalar cost_scenario_network.node[0].core_layer 	repo_int[0] 	136979265
scalar cost_scenario_network.node[0].content_store 	p_hit[0] 	0.23901398037929
scalar cost_scenario_network.node[0].content_store 	hits[0] 	43023076
scalar cost_scenario_network.node[0].content_store 	misses[0] 	136979265
scalar cost_scenario_network.node[0].content_store 	decision_yes[0] 	2369758
scalar cost_scenario_network.node[0].content_store 	decision_no[0] 	134609507
scalar cost_scenario_network.node[0].content_store 	decision_ratio[0] 	0.017300122029418
scalar cost_scenario_network.node[0].content_store 	cache_value[0] 	830.18939648867
scalar cost_scenario_network.node[0].content_store 	average_price_of_cache[0] 	93.07
scalar cost_scenario_network.node[0].content_store 	correction_factor[0] 	0.0003960396039604
scalar cost_scenario_network.node[0].content_store 	kappa[0] 	1
scalar cost_scenario_network.node[1].core_layer 	interests[1] 	59576451
scalar cost_scenario_network.node[1].core_layer 	repo_load[1] 	59576451
scalar cost_scenario_network.node[1].core_layer 	data[1] 	0
scalar cost_scenario_network.node[1].content_store 	p_hit[1] 	0
scalar cost_scenario_network.node[1].content_store 	hits[1] 	0
scalar cost_scenario_network.node[1].content_store 	misses[1] 	59576451
scalar cost_scenario_network.node[1].content_store 	decision_yes[1] 	0
scalar cost_scenario_network.node[1].content_store 	decision_no[1] 	59576451
scalar cost_scenario_network.node[1].content_store 	decision_ratio[1] 	0
scalar cost_scenario_network.node[1].content_store 	cache_value[1] 	6.9532804658192e-310
scalar cost_scenario_network.node[1].content_store 	average_price_of_cache[1] 	-nan
scalar cost_scenario_network.node[1].content_store 	correction_factor[1] 	0.0003960396039604
scalar cost_scenario_network.node[1].content_store 	kappa[1] 	1
scalar cost_scenario_network.node[2].core_layer 	interests[2] 	34250271
scalar cost_scenario_network.node[2].core_layer 	repo_load[2] 	34250271
scalar cost_scenario_network.node[2].core_layer 	data[2] 	0
scalar cost_scenario_network.node[2].content_store 	p_hit[2] 	0
scalar cost_scenario_network.node[2].content_store 	hits[2] 	0
scalar cost_scenario_network.node[2].content_store 	misses[2] 	34250271
scalar cost_scenario_network.node[2].content_store 	decision_yes[2] 	0
scalar cost_scenario_network.node[2].content_store 	decision_no[2] 	34250271
scalar cost_scenario_network.node[2].content_store 	decision_ratio[2] 	0
scalar cost_scenario_network.node[2].content_store 	cache_value[2] 	6.9532804658192e-310
scalar cost_scenario_network.node[2].content_store 	average_price_of_cache[2] 	-nan
scalar cost_scenario_network.node[2].content_store 	correction_factor[2] 	0.0003960396039604
scalar cost_scenario_network.node[2].content_store 	kappa[2] 	1
scalar cost_scenario_network.node[3].core_layer 	interests[3] 	43152543
scalar cost_scenario_network.node[3].core_layer 	repo_load[3] 	43152543
scalar cost_scenario_network.node[3].core_layer 	data[3] 	0
scalar cost_scenario_network.node[3].content_store 	p_hit[3] 	0
scalar cost_scenario_network.node[3].content_store 	hits[3] 	0
scalar cost_scenario_network.node[3].content_store 	misses[3] 	43152543
scalar cost_scenario_network.node[3].content_store 	decision_yes[3] 	0
scalar cost_scenario_network.node[3].content_store 	decision_no[3] 	43152543
scalar cost_scenario_network.node[3].content_store 	decision_ratio[3] 	0
scalar cost_scenario_network.node[3].content_store 	cache_value[3] 	6.9532804658192e-310
scalar cost_scenario_network.node[3].content_store 	average_price_of_cache[3] 	-nan
scalar cost_scenario_network.node[3].content_store 	correction_factor[3] 	0.0003960396039604
scalar cost_scenario_network.node[3].content_store 	kappa[3] 	1
scalar cost_scenario_network.client[0] 	hdistance[0] 	1.5219720392426
scalar cost_scenario_network.client[0] 	downloads[0] 	180002341
scalar cost_scenario_network.client[0] 	avg_time[0] 	0
scalar cost_scenario_network.client[0] 	interests_sent[0] 	180002341
