version 2
run General-267-20150406-04:41:38-15370
attr D costaware0.01
attr F nrr
attr R lru
attr a 1.2
attr configname General
attr csize 1e3
attr ctlg 1e5
attr datetime 20150406-04:41:38
attr experiment General
attr inifile omnetpp.ini
attr iterationvars "$rep=17, $net=cost_scenario, $lambda=100, $a=1.2, $ctlg=1e5, $F=nrr, $ttl=10, $D=costaware0.01, $R=lru, $csize=1e3, $window=60, $variance=0.05, $mytime=1800000, $kappa=1, $priceratiovalue=10, $splits=0.25_0.25_0.5, $pricebits=0"
attr iterationvars2 "$rep=17, $net=cost_scenario, $lambda=100, $a=1.2, $ctlg=1e5, $F=nrr, $ttl=10, $D=costaware0.01, $R=lru, $csize=1e3, $window=60, $variance=0.05, $mytime=1800000, $kappa=1, $priceratiovalue=10, $splits=0.25_0.25_0.5, $pricebits=0, $repetition=0"
attr kappa 1
attr lambda 100
attr measurement "$rep=17, $net=cost_scenario, $lambda=100, $a=1.2, $ctlg=1e5, $F=nrr, $ttl=10, $D=costaware0.01, $R=lru, $csize=1e3, $window=60, $variance=0.05, $mytime=1800000, $kappa=1, $priceratiovalue=10, $splits=0.25_0.25_0.5, $pricebits=0"
attr mytime 1800000
attr net cost_scenario
attr network networks.${net=cost_scenario}_network
attr pricebits 0
attr priceratiovalue 10
attr processid 15370
attr rep 17
attr repetition 0
attr replication #0
attr resultdir results
attr runnumber 267
attr seedset 17
attr splits 0.25_0.25_0.5
attr ttl 10
attr variance 0.05
attr window 60

scalar . 	a 	1.2
scalar . 	csize 	1e3
scalar . 	ctlg 	1e5
scalar . 	kappa 	1
scalar . 	lambda 	100
scalar . 	mytime 	1800000
scalar . 	pricebits 	0
scalar . 	priceratiovalue 	10
scalar . 	rep 	17
scalar . 	ttl 	10
scalar . 	variance 	0.05
scalar . 	window 	60
scalar cost_scenario_network.content_distribution 	repo-0 	1
scalar cost_scenario_network.content_distribution 	repo-1 	2
scalar cost_scenario_network.content_distribution 	repo-2 	3
scalar cost_scenario_network.content_distribution 	client-0 	0
scalar cost_scenario_network.content_distribution 	repo-0_card 	24939
scalar cost_scenario_network.content_distribution 	repo-0_price 	10
scalar cost_scenario_network.content_distribution 	repo-1_card 	25237
scalar cost_scenario_network.content_distribution 	repo-1_price 	1
scalar cost_scenario_network.content_distribution 	repo-2_card 	49824
scalar cost_scenario_network.content_distribution 	repo-2_price 	0
scalar cost_scenario_network.statistics 	repo_popularity[0] 	0.30082114392253
scalar cost_scenario_network.statistics 	repo_popularity[1] 	0.17391793725656
scalar cost_scenario_network.statistics 	repo_popularity[2] 	0.5252609188209
scalar cost_scenario_network.statistics 	stabilization_time 	10320.3
scalar cost_scenario_network.statistics 	p_hit 	0.25937850969218
scalar cost_scenario_network.statistics 	interests 	71466158.75
scalar cost_scenario_network.statistics 	data 	26464686.5
scalar cost_scenario_network.statistics 	hdistance 	1.1761698085334
scalar cost_scenario_network.statistics 	avg_time 	0
scalar cost_scenario_network.statistics 	downloads 	180005889
scalar cost_scenario_network.statistics 	total_cost 	56780908
scalar cost_scenario_network.statistics 	total_replicas 	100000
scalar cost_scenario_network.statistics 	inner_hit 	0.41191509573334
scalar cost_scenario_network.statistics 	interests_sent 	180005889
scalar cost_scenario_network.node[0].core_layer 	interests[0] 	180005889
scalar cost_scenario_network.node[0].core_layer 	data[0] 	105858746
scalar cost_scenario_network.node[0].core_layer 	repo_int[0] 	105858746
scalar cost_scenario_network.node[0].content_store 	p_hit[0] 	0.41191509573334
scalar cost_scenario_network.node[0].content_store 	hits[0] 	74147143
scalar cost_scenario_network.node[0].content_store 	misses[0] 	105858746
scalar cost_scenario_network.node[0].content_store 	decision_yes[0] 	108203
scalar cost_scenario_network.node[0].content_store 	decision_no[0] 	105750543
scalar cost_scenario_network.node[0].content_store 	decision_ratio[0] 	0.0010221451140183
scalar cost_scenario_network.node[0].content_store 	cache_value[0] 	14.604831043291
scalar cost_scenario_network.node[0].content_store 	average_price_of_cache[0] 	6.4
scalar cost_scenario_network.node[0].content_store 	correction_factor[0] 	0.0019047619047619
scalar cost_scenario_network.node[0].content_store 	kappa[0] 	1
scalar cost_scenario_network.node[1].core_layer 	interests[1] 	5052689
scalar cost_scenario_network.node[1].core_layer 	repo_load[1] 	5052689
scalar cost_scenario_network.node[1].core_layer 	data[1] 	0
scalar cost_scenario_network.node[1].content_store 	p_hit[1] 	0
scalar cost_scenario_network.node[1].content_store 	hits[1] 	0
scalar cost_scenario_network.node[1].content_store 	misses[1] 	5052689
scalar cost_scenario_network.node[1].content_store 	decision_yes[1] 	0
scalar cost_scenario_network.node[1].content_store 	decision_no[1] 	5052689
scalar cost_scenario_network.node[1].content_store 	decision_ratio[1] 	0
scalar cost_scenario_network.node[1].content_store 	cache_value[1] 	8.8634033005363e-317
scalar cost_scenario_network.node[1].content_store 	average_price_of_cache[1] 	-nan
scalar cost_scenario_network.node[1].content_store 	correction_factor[1] 	0.0019047619047619
scalar cost_scenario_network.node[1].content_store 	kappa[1] 	1
scalar cost_scenario_network.node[2].core_layer 	interests[2] 	6254018
scalar cost_scenario_network.node[2].core_layer 	repo_load[2] 	6254018
scalar cost_scenario_network.node[2].core_layer 	data[2] 	0
scalar cost_scenario_network.node[2].content_store 	p_hit[2] 	0
scalar cost_scenario_network.node[2].content_store 	hits[2] 	0
scalar cost_scenario_network.node[2].content_store 	misses[2] 	6254018
scalar cost_scenario_network.node[2].content_store 	decision_yes[2] 	0
scalar cost_scenario_network.node[2].content_store 	decision_no[2] 	6254018
scalar cost_scenario_network.node[2].content_store 	decision_ratio[2] 	0
scalar cost_scenario_network.node[2].content_store 	cache_value[2] 	8.8649922156533e-317
scalar cost_scenario_network.node[2].content_store 	average_price_of_cache[2] 	-nan
scalar cost_scenario_network.node[2].content_store 	correction_factor[2] 	0.0019047619047619
scalar cost_scenario_network.node[2].content_store 	kappa[2] 	1
scalar cost_scenario_network.node[3].core_layer 	interests[3] 	94552039
scalar cost_scenario_network.node[3].core_layer 	repo_load[3] 	94552039
scalar cost_scenario_network.node[3].core_layer 	data[3] 	0
scalar cost_scenario_network.node[3].content_store 	p_hit[3] 	0
scalar cost_scenario_network.node[3].content_store 	hits[3] 	0
scalar cost_scenario_network.node[3].content_store 	misses[3] 	94552039
scalar cost_scenario_network.node[3].content_store 	decision_yes[3] 	0
scalar cost_scenario_network.node[3].content_store 	decision_no[3] 	94552039
scalar cost_scenario_network.node[3].content_store 	decision_ratio[3] 	0
scalar cost_scenario_network.node[3].content_store 	cache_value[3] 	8.8665811307703e-317
scalar cost_scenario_network.node[3].content_store 	average_price_of_cache[3] 	-nan
scalar cost_scenario_network.node[3].content_store 	correction_factor[3] 	0.0019047619047619
scalar cost_scenario_network.node[3].content_store 	kappa[3] 	1
scalar cost_scenario_network.client[0] 	hdistance[0] 	1.1761698085334
scalar cost_scenario_network.client[0] 	downloads[0] 	180005889
scalar cost_scenario_network.client[0] 	avg_time[0] 	0
scalar cost_scenario_network.client[0] 	interests_sent[0] 	180005889
