version 2
run General-29-20140930-19:04:02-19961
attr D fix0.01
attr F nrr
attr R lru
attr a 1
attr configname General
attr csize 1e3
attr ctlg 1e5
attr datetime 20140930-19:04:02
attr experiment General
attr inifile omnetpp.ini
attr iterationvars "$net=dtelecom_cost, $rep=4, $priceratiovalue=10, $weights=0.333_0.333_0.334, $lambda=100, $a=1, $ctlg=1e5, $F=nrr, $ttl=10, $D=fix0.01, $xi=1, $R=lru, $csize=1e3, $pricebits=0, $window=60, $variance=0.05, $mytime=1800"
attr iterationvars2 "$net=dtelecom_cost, $rep=4, $priceratiovalue=10, $weights=0.333_0.333_0.334, $lambda=100, $a=1, $ctlg=1e5, $F=nrr, $ttl=10, $D=fix0.01, $xi=1, $R=lru, $csize=1e3, $pricebits=0, $window=60, $variance=0.05, $mytime=1800, $repetition=0"
attr lambda 100
attr measurement "$net=dtelecom_cost, $rep=4, $priceratiovalue=10, $weights=0.333_0.333_0.334, $lambda=100, $a=1, $ctlg=1e5, $F=nrr, $ttl=10, $D=fix0.01, $xi=1, $R=lru, $csize=1e3, $pricebits=0, $window=60, $variance=0.05, $mytime=1800"
attr mytime 1800
attr net dtelecom_cost
attr network networks.${net=tiger_cost,dtelecom_cost}_network
attr pricebits 0
attr priceratiovalue 10
attr processid 19961
attr rep 4
attr repetition 0
attr replication #0
attr resultdir results
attr runnumber 29
attr seedset 4
attr ttl 10
attr variance 0.05
attr weights 0.333_0.333_0.334
attr window 60
attr xi 1

scalar . 	a 	1
scalar . 	csize 	1e3
scalar . 	ctlg 	1e5
scalar . 	lambda 	100
scalar . 	mytime 	1800
scalar . 	pricebits 	0
scalar . 	priceratiovalue 	10
scalar . 	rep 	4
scalar . 	ttl 	10
scalar . 	variance 	0.05
scalar . 	window 	60
scalar . 	xi 	1
scalar dtelecom_cost_network.content_distribution 	repo-0 	48
scalar dtelecom_cost_network.content_distribution 	repo-1 	16
scalar dtelecom_cost_network.content_distribution 	repo-2 	25
scalar dtelecom_cost_network.content_distribution 	client-0 	58
scalar dtelecom_cost_network.content_distribution 	client-1 	26
scalar dtelecom_cost_network.content_distribution 	client-2 	66
scalar dtelecom_cost_network.content_distribution 	repo-0_card 	33278
scalar dtelecom_cost_network.content_distribution 	repo-0_price 	10
scalar dtelecom_cost_network.content_distribution 	repo-1_card 	33151
scalar dtelecom_cost_network.content_distribution 	repo-1_price 	0
scalar dtelecom_cost_network.content_distribution 	repo-2_card 	33571
scalar dtelecom_cost_network.content_distribution 	repo-2_price 	1
scalar dtelecom_cost_network.statistics 	repo_popularity[0] 	0.2850174565412
scalar dtelecom_cost_network.statistics 	repo_popularity[1] 	0.35214334222346
scalar dtelecom_cost_network.statistics 	repo_popularity[2] 	0.36283920123535
scalar dtelecom_cost_network.statistics 	stabilization_time 	36060
scalar dtelecom_cost_network.statistics 	p_hit 	0.15235338762948
scalar dtelecom_cost_network.statistics 	interests 	19007.955882353
scalar dtelecom_cost_network.statistics 	data 	11066.661764706
scalar dtelecom_cost_network.statistics 	hdistance 	2.0343548514606
scalar dtelecom_cost_network.statistics 	avg_time 	0.03715412956
scalar dtelecom_cost_network.statistics 	downloads 	537252
scalar dtelecom_cost_network.statistics 	total_cost 	1312408
scalar dtelecom_cost_network.statistics 	total_replicas 	100000
scalar dtelecom_cost_network.statistics 	inner_hit 	0.36667150610887
scalar dtelecom_cost_network.node[0].core_layer 	interests[0] 	0
scalar dtelecom_cost_network.node[0].core_layer 	data[0] 	0
scalar dtelecom_cost_network.node[0].core_layer 	repo_int[0] 	340257
scalar dtelecom_cost_network.node[0].content_store 	p_hit[0] 	-nan
scalar dtelecom_cost_network.node[0].content_store 	hits[0] 	0
scalar dtelecom_cost_network.node[0].content_store 	misses[0] 	0
scalar dtelecom_cost_network.node[0].content_store 	decision_yes[0] 	0
scalar dtelecom_cost_network.node[0].content_store 	decision_no[0] 	0
scalar dtelecom_cost_network.node[0].content_store 	decision_ratio[0] 	0
scalar dtelecom_cost_network.node[1].core_layer 	interests[1] 	219391
scalar dtelecom_cost_network.node[1].core_layer 	data[1] 	205742
scalar dtelecom_cost_network.node[1].content_store 	p_hit[1] 	0.062112848749493
scalar dtelecom_cost_network.node[1].content_store 	hits[1] 	13627
scalar dtelecom_cost_network.node[1].content_store 	misses[1] 	205764
scalar dtelecom_cost_network.node[1].content_store 	decision_yes[1] 	2050
scalar dtelecom_cost_network.node[1].content_store 	decision_no[1] 	203692
scalar dtelecom_cost_network.node[1].content_store 	decision_ratio[1] 	0.0099639354142567
scalar dtelecom_cost_network.node[2].core_layer 	interests[2] 	0
scalar dtelecom_cost_network.node[2].core_layer 	data[2] 	0
scalar dtelecom_cost_network.node[2].content_store 	p_hit[2] 	-nan
scalar dtelecom_cost_network.node[2].content_store 	hits[2] 	0
scalar dtelecom_cost_network.node[2].content_store 	misses[2] 	0
scalar dtelecom_cost_network.node[2].content_store 	decision_yes[2] 	0
scalar dtelecom_cost_network.node[2].content_store 	decision_no[2] 	0
scalar dtelecom_cost_network.node[2].content_store 	decision_ratio[2] 	0
scalar dtelecom_cost_network.node[3].core_layer 	interests[3] 	0
scalar dtelecom_cost_network.node[3].core_layer 	data[3] 	0
scalar dtelecom_cost_network.node[3].content_store 	p_hit[3] 	-nan
scalar dtelecom_cost_network.node[3].content_store 	hits[3] 	0
scalar dtelecom_cost_network.node[3].content_store 	misses[3] 	0
scalar dtelecom_cost_network.node[3].content_store 	decision_yes[3] 	0
scalar dtelecom_cost_network.node[3].content_store 	decision_no[3] 	0
scalar dtelecom_cost_network.node[3].content_store 	decision_ratio[3] 	0
scalar dtelecom_cost_network.node[4].core_layer 	interests[4] 	157752
scalar dtelecom_cost_network.node[4].core_layer 	data[4] 	133238
scalar dtelecom_cost_network.node[4].content_store 	p_hit[4] 	0.1550851970181
scalar dtelecom_cost_network.node[4].content_store 	hits[4] 	24465
scalar dtelecom_cost_network.node[4].content_store 	misses[4] 	133287
scalar dtelecom_cost_network.node[4].content_store 	decision_yes[4] 	1331
scalar dtelecom_cost_network.node[4].content_store 	decision_no[4] 	131904
scalar dtelecom_cost_network.node[4].content_store 	decision_ratio[4] 	0.0099898675273014
scalar dtelecom_cost_network.node[5].core_layer 	interests[5] 	0
scalar dtelecom_cost_network.node[5].core_layer 	data[5] 	0
scalar dtelecom_cost_network.node[5].content_store 	p_hit[5] 	-nan
scalar dtelecom_cost_network.node[5].content_store 	hits[5] 	0
scalar dtelecom_cost_network.node[5].content_store 	misses[5] 	0
scalar dtelecom_cost_network.node[5].content_store 	decision_yes[5] 	0
scalar dtelecom_cost_network.node[5].content_store 	decision_no[5] 	0
scalar dtelecom_cost_network.node[5].content_store 	decision_ratio[5] 	0
scalar dtelecom_cost_network.node[6].core_layer 	interests[6] 	0
scalar dtelecom_cost_network.node[6].core_layer 	data[6] 	0
scalar dtelecom_cost_network.node[6].content_store 	p_hit[6] 	-nan
scalar dtelecom_cost_network.node[6].content_store 	hits[6] 	0
scalar dtelecom_cost_network.node[6].content_store 	misses[6] 	0
scalar dtelecom_cost_network.node[6].content_store 	decision_yes[6] 	0
scalar dtelecom_cost_network.node[6].content_store 	decision_no[6] 	0
scalar dtelecom_cost_network.node[6].content_store 	decision_ratio[6] 	0
scalar dtelecom_cost_network.node[7].core_layer 	interests[7] 	0
scalar dtelecom_cost_network.node[7].core_layer 	data[7] 	0
scalar dtelecom_cost_network.node[7].content_store 	p_hit[7] 	-nan
scalar dtelecom_cost_network.node[7].content_store 	hits[7] 	0
scalar dtelecom_cost_network.node[7].content_store 	misses[7] 	0
scalar dtelecom_cost_network.node[7].content_store 	decision_yes[7] 	0
scalar dtelecom_cost_network.node[7].content_store 	decision_no[7] 	0
scalar dtelecom_cost_network.node[7].content_store 	decision_ratio[7] 	0
scalar dtelecom_cost_network.node[8].core_layer 	interests[8] 	0
scalar dtelecom_cost_network.node[8].core_layer 	data[8] 	0
scalar dtelecom_cost_network.node[8].content_store 	p_hit[8] 	-nan
scalar dtelecom_cost_network.node[8].content_store 	hits[8] 	0
scalar dtelecom_cost_network.node[8].content_store 	misses[8] 	0
scalar dtelecom_cost_network.node[8].content_store 	decision_yes[8] 	0
scalar dtelecom_cost_network.node[8].content_store 	decision_no[8] 	0
scalar dtelecom_cost_network.node[8].content_store 	decision_ratio[8] 	0
scalar dtelecom_cost_network.node[9].core_layer 	interests[9] 	0
scalar dtelecom_cost_network.node[9].core_layer 	data[9] 	0
scalar dtelecom_cost_network.node[9].content_store 	p_hit[9] 	-nan
scalar dtelecom_cost_network.node[9].content_store 	hits[9] 	0
scalar dtelecom_cost_network.node[9].content_store 	misses[9] 	0
scalar dtelecom_cost_network.node[9].content_store 	decision_yes[9] 	0
scalar dtelecom_cost_network.node[9].content_store 	decision_no[9] 	0
scalar dtelecom_cost_network.node[9].content_store 	decision_ratio[9] 	0
scalar dtelecom_cost_network.node[10].core_layer 	interests[10] 	0
scalar dtelecom_cost_network.node[10].core_layer 	data[10] 	0
scalar dtelecom_cost_network.node[10].content_store 	p_hit[10] 	-nan
scalar dtelecom_cost_network.node[10].content_store 	hits[10] 	0
scalar dtelecom_cost_network.node[10].content_store 	misses[10] 	0
scalar dtelecom_cost_network.node[10].content_store 	decision_yes[10] 	0
scalar dtelecom_cost_network.node[10].content_store 	decision_no[10] 	0
scalar dtelecom_cost_network.node[10].content_store 	decision_ratio[10] 	0
scalar dtelecom_cost_network.node[11].core_layer 	interests[11] 	0
scalar dtelecom_cost_network.node[11].core_layer 	data[11] 	0
scalar dtelecom_cost_network.node[11].content_store 	p_hit[11] 	-nan
scalar dtelecom_cost_network.node[11].content_store 	hits[11] 	0
scalar dtelecom_cost_network.node[11].content_store 	misses[11] 	0
scalar dtelecom_cost_network.node[11].content_store 	decision_yes[11] 	0
scalar dtelecom_cost_network.node[11].content_store 	decision_no[11] 	0
scalar dtelecom_cost_network.node[11].content_store 	decision_ratio[11] 	0
scalar dtelecom_cost_network.node[12].core_layer 	interests[12] 	0
scalar dtelecom_cost_network.node[12].core_layer 	data[12] 	0
scalar dtelecom_cost_network.node[12].content_store 	p_hit[12] 	-nan
scalar dtelecom_cost_network.node[12].content_store 	hits[12] 	0
scalar dtelecom_cost_network.node[12].content_store 	misses[12] 	0
scalar dtelecom_cost_network.node[12].content_store 	decision_yes[12] 	0
scalar dtelecom_cost_network.node[12].content_store 	decision_no[12] 	0
scalar dtelecom_cost_network.node[12].content_store 	decision_ratio[12] 	0
scalar dtelecom_cost_network.node[13].core_layer 	interests[13] 	0
scalar dtelecom_cost_network.node[13].core_layer 	data[13] 	0
scalar dtelecom_cost_network.node[13].content_store 	p_hit[13] 	-nan
scalar dtelecom_cost_network.node[13].content_store 	hits[13] 	0
scalar dtelecom_cost_network.node[13].content_store 	misses[13] 	0
scalar dtelecom_cost_network.node[13].content_store 	decision_yes[13] 	0
scalar dtelecom_cost_network.node[13].content_store 	decision_no[13] 	0
scalar dtelecom_cost_network.node[13].content_store 	decision_ratio[13] 	0
scalar dtelecom_cost_network.node[14].core_layer 	interests[14] 	0
scalar dtelecom_cost_network.node[14].core_layer 	data[14] 	0
scalar dtelecom_cost_network.node[14].content_store 	p_hit[14] 	-nan
scalar dtelecom_cost_network.node[14].content_store 	hits[14] 	0
scalar dtelecom_cost_network.node[14].content_store 	misses[14] 	0
scalar dtelecom_cost_network.node[14].content_store 	decision_yes[14] 	0
scalar dtelecom_cost_network.node[14].content_store 	decision_no[14] 	0
scalar dtelecom_cost_network.node[14].content_store 	decision_ratio[14] 	0
scalar dtelecom_cost_network.node[15].core_layer 	interests[15] 	0
scalar dtelecom_cost_network.node[15].core_layer 	data[15] 	0
scalar dtelecom_cost_network.node[15].content_store 	p_hit[15] 	-nan
scalar dtelecom_cost_network.node[15].content_store 	hits[15] 	0
scalar dtelecom_cost_network.node[15].content_store 	misses[15] 	0
scalar dtelecom_cost_network.node[15].content_store 	decision_yes[15] 	0
scalar dtelecom_cost_network.node[15].content_store 	decision_no[15] 	0
scalar dtelecom_cost_network.node[15].content_store 	decision_ratio[15] 	0
scalar dtelecom_cost_network.node[16].core_layer 	interests[16] 	115300
scalar dtelecom_cost_network.node[16].core_layer 	repo_load[16] 	108488
scalar dtelecom_cost_network.node[16].core_layer 	data[16] 	0
scalar dtelecom_cost_network.node[16].content_store 	p_hit[16] 	0.059080659150043
scalar dtelecom_cost_network.node[16].content_store 	hits[16] 	6812
scalar dtelecom_cost_network.node[16].content_store 	misses[16] 	108488
scalar dtelecom_cost_network.node[16].content_store 	decision_yes[16] 	1185
scalar dtelecom_cost_network.node[16].content_store 	decision_no[16] 	107303
scalar dtelecom_cost_network.node[16].content_store 	decision_ratio[16] 	0.010922867045203
scalar dtelecom_cost_network.node[17].core_layer 	interests[17] 	0
scalar dtelecom_cost_network.node[17].core_layer 	data[17] 	0
scalar dtelecom_cost_network.node[17].content_store 	p_hit[17] 	-nan
scalar dtelecom_cost_network.node[17].content_store 	hits[17] 	0
scalar dtelecom_cost_network.node[17].content_store 	misses[17] 	0
scalar dtelecom_cost_network.node[17].content_store 	decision_yes[17] 	0
scalar dtelecom_cost_network.node[17].content_store 	decision_no[17] 	0
scalar dtelecom_cost_network.node[17].content_store 	decision_ratio[17] 	0
scalar dtelecom_cost_network.node[18].core_layer 	interests[18] 	0
scalar dtelecom_cost_network.node[18].core_layer 	data[18] 	0
scalar dtelecom_cost_network.node[18].content_store 	p_hit[18] 	-nan
scalar dtelecom_cost_network.node[18].content_store 	hits[18] 	0
scalar dtelecom_cost_network.node[18].content_store 	misses[18] 	0
scalar dtelecom_cost_network.node[18].content_store 	decision_yes[18] 	0
scalar dtelecom_cost_network.node[18].content_store 	decision_no[18] 	0
scalar dtelecom_cost_network.node[18].content_store 	decision_ratio[18] 	0
scalar dtelecom_cost_network.node[19].core_layer 	interests[19] 	0
scalar dtelecom_cost_network.node[19].core_layer 	data[19] 	0
scalar dtelecom_cost_network.node[19].content_store 	p_hit[19] 	-nan
scalar dtelecom_cost_network.node[19].content_store 	hits[19] 	0
scalar dtelecom_cost_network.node[19].content_store 	misses[19] 	0
scalar dtelecom_cost_network.node[19].content_store 	decision_yes[19] 	0
scalar dtelecom_cost_network.node[19].content_store 	decision_no[19] 	0
scalar dtelecom_cost_network.node[19].content_store 	decision_ratio[19] 	0
scalar dtelecom_cost_network.node[20].core_layer 	interests[20] 	0
scalar dtelecom_cost_network.node[20].core_layer 	data[20] 	0
scalar dtelecom_cost_network.node[20].content_store 	p_hit[20] 	-nan
scalar dtelecom_cost_network.node[20].content_store 	hits[20] 	0
scalar dtelecom_cost_network.node[20].content_store 	misses[20] 	0
scalar dtelecom_cost_network.node[20].content_store 	decision_yes[20] 	0
scalar dtelecom_cost_network.node[20].content_store 	decision_no[20] 	0
scalar dtelecom_cost_network.node[20].content_store 	decision_ratio[20] 	0
scalar dtelecom_cost_network.node[21].core_layer 	interests[21] 	0
scalar dtelecom_cost_network.node[21].core_layer 	data[21] 	0
scalar dtelecom_cost_network.node[21].content_store 	p_hit[21] 	-nan
scalar dtelecom_cost_network.node[21].content_store 	hits[21] 	0
scalar dtelecom_cost_network.node[21].content_store 	misses[21] 	0
scalar dtelecom_cost_network.node[21].content_store 	decision_yes[21] 	0
scalar dtelecom_cost_network.node[21].content_store 	decision_no[21] 	0
scalar dtelecom_cost_network.node[21].content_store 	decision_ratio[21] 	0
scalar dtelecom_cost_network.node[22].core_layer 	interests[22] 	0
scalar dtelecom_cost_network.node[22].core_layer 	data[22] 	0
scalar dtelecom_cost_network.node[22].content_store 	p_hit[22] 	-nan
scalar dtelecom_cost_network.node[22].content_store 	hits[22] 	0
scalar dtelecom_cost_network.node[22].content_store 	misses[22] 	0
scalar dtelecom_cost_network.node[22].content_store 	decision_yes[22] 	0
scalar dtelecom_cost_network.node[22].content_store 	decision_no[22] 	0
scalar dtelecom_cost_network.node[22].content_store 	decision_ratio[22] 	0
scalar dtelecom_cost_network.node[23].core_layer 	interests[23] 	0
scalar dtelecom_cost_network.node[23].core_layer 	data[23] 	0
scalar dtelecom_cost_network.node[23].content_store 	p_hit[23] 	-nan
scalar dtelecom_cost_network.node[23].content_store 	hits[23] 	0
scalar dtelecom_cost_network.node[23].content_store 	misses[23] 	0
scalar dtelecom_cost_network.node[23].content_store 	decision_yes[23] 	0
scalar dtelecom_cost_network.node[23].content_store 	decision_no[23] 	0
scalar dtelecom_cost_network.node[23].content_store 	decision_ratio[23] 	0
scalar dtelecom_cost_network.node[24].core_layer 	interests[24] 	0
scalar dtelecom_cost_network.node[24].core_layer 	data[24] 	0
scalar dtelecom_cost_network.node[24].content_store 	p_hit[24] 	-nan
scalar dtelecom_cost_network.node[24].content_store 	hits[24] 	0
scalar dtelecom_cost_network.node[24].content_store 	misses[24] 	0
scalar dtelecom_cost_network.node[24].content_store 	decision_yes[24] 	0
scalar dtelecom_cost_network.node[24].content_store 	decision_no[24] 	0
scalar dtelecom_cost_network.node[24].content_store 	decision_ratio[24] 	0
scalar dtelecom_cost_network.node[25].core_layer 	interests[25] 	119758
scalar dtelecom_cost_network.node[25].core_layer 	repo_load[25] 	111698
scalar dtelecom_cost_network.node[25].core_layer 	data[25] 	0
scalar dtelecom_cost_network.node[25].content_store 	p_hit[25] 	0.067302393159538
scalar dtelecom_cost_network.node[25].content_store 	hits[25] 	8060
scalar dtelecom_cost_network.node[25].content_store 	misses[25] 	111698
scalar dtelecom_cost_network.node[25].content_store 	decision_yes[25] 	1105
scalar dtelecom_cost_network.node[25].content_store 	decision_no[25] 	110593
scalar dtelecom_cost_network.node[25].content_store 	decision_ratio[25] 	0.0098927465129188
scalar dtelecom_cost_network.node[26].core_layer 	interests[26] 	185423
scalar dtelecom_cost_network.node[26].core_layer 	data[26] 	138619
scalar dtelecom_cost_network.node[26].content_store 	p_hit[26] 	0.24882565808988
scalar dtelecom_cost_network.node[26].content_store 	hits[26] 	46138
scalar dtelecom_cost_network.node[26].content_store 	misses[26] 	139285
scalar dtelecom_cost_network.node[26].content_store 	decision_yes[26] 	1385
scalar dtelecom_cost_network.node[26].content_store 	decision_no[26] 	137234
scalar dtelecom_cost_network.node[26].content_store 	decision_ratio[26] 	0.0099914153182464
scalar dtelecom_cost_network.node[27].core_layer 	interests[27] 	0
scalar dtelecom_cost_network.node[27].core_layer 	data[27] 	0
scalar dtelecom_cost_network.node[27].content_store 	p_hit[27] 	-nan
scalar dtelecom_cost_network.node[27].content_store 	hits[27] 	0
scalar dtelecom_cost_network.node[27].content_store 	misses[27] 	0
scalar dtelecom_cost_network.node[27].content_store 	decision_yes[27] 	0
scalar dtelecom_cost_network.node[27].content_store 	decision_no[27] 	0
scalar dtelecom_cost_network.node[27].content_store 	decision_ratio[27] 	0
scalar dtelecom_cost_network.node[28].core_layer 	interests[28] 	0
scalar dtelecom_cost_network.node[28].core_layer 	data[28] 	0
scalar dtelecom_cost_network.node[28].content_store 	p_hit[28] 	-nan
scalar dtelecom_cost_network.node[28].content_store 	hits[28] 	0
scalar dtelecom_cost_network.node[28].content_store 	misses[28] 	0
scalar dtelecom_cost_network.node[28].content_store 	decision_yes[28] 	0
scalar dtelecom_cost_network.node[28].content_store 	decision_no[28] 	0
scalar dtelecom_cost_network.node[28].content_store 	decision_ratio[28] 	0
scalar dtelecom_cost_network.node[29].core_layer 	interests[29] 	0
scalar dtelecom_cost_network.node[29].core_layer 	data[29] 	0
scalar dtelecom_cost_network.node[29].content_store 	p_hit[29] 	-nan
scalar dtelecom_cost_network.node[29].content_store 	hits[29] 	0
scalar dtelecom_cost_network.node[29].content_store 	misses[29] 	0
scalar dtelecom_cost_network.node[29].content_store 	decision_yes[29] 	0
scalar dtelecom_cost_network.node[29].content_store 	decision_no[29] 	0
scalar dtelecom_cost_network.node[29].content_store 	decision_ratio[29] 	0
scalar dtelecom_cost_network.node[30].core_layer 	interests[30] 	0
scalar dtelecom_cost_network.node[30].core_layer 	data[30] 	0
scalar dtelecom_cost_network.node[30].content_store 	p_hit[30] 	-nan
scalar dtelecom_cost_network.node[30].content_store 	hits[30] 	0
scalar dtelecom_cost_network.node[30].content_store 	misses[30] 	0
scalar dtelecom_cost_network.node[30].content_store 	decision_yes[30] 	0
scalar dtelecom_cost_network.node[30].content_store 	decision_no[30] 	0
scalar dtelecom_cost_network.node[30].content_store 	decision_ratio[30] 	0
scalar dtelecom_cost_network.node[31].core_layer 	interests[31] 	0
scalar dtelecom_cost_network.node[31].core_layer 	data[31] 	0
scalar dtelecom_cost_network.node[31].content_store 	p_hit[31] 	-nan
scalar dtelecom_cost_network.node[31].content_store 	hits[31] 	0
scalar dtelecom_cost_network.node[31].content_store 	misses[31] 	0
scalar dtelecom_cost_network.node[31].content_store 	decision_yes[31] 	0
scalar dtelecom_cost_network.node[31].content_store 	decision_no[31] 	0
scalar dtelecom_cost_network.node[31].content_store 	decision_ratio[31] 	0
scalar dtelecom_cost_network.node[32].core_layer 	interests[32] 	0
scalar dtelecom_cost_network.node[32].core_layer 	data[32] 	0
scalar dtelecom_cost_network.node[32].content_store 	p_hit[32] 	-nan
scalar dtelecom_cost_network.node[32].content_store 	hits[32] 	0
scalar dtelecom_cost_network.node[32].content_store 	misses[32] 	0
scalar dtelecom_cost_network.node[32].content_store 	decision_yes[32] 	0
scalar dtelecom_cost_network.node[32].content_store 	decision_no[32] 	0
scalar dtelecom_cost_network.node[32].content_store 	decision_ratio[32] 	0
scalar dtelecom_cost_network.node[33].core_layer 	interests[33] 	0
scalar dtelecom_cost_network.node[33].core_layer 	data[33] 	0
scalar dtelecom_cost_network.node[33].content_store 	p_hit[33] 	-nan
scalar dtelecom_cost_network.node[33].content_store 	hits[33] 	0
scalar dtelecom_cost_network.node[33].content_store 	misses[33] 	0
scalar dtelecom_cost_network.node[33].content_store 	decision_yes[33] 	0
scalar dtelecom_cost_network.node[33].content_store 	decision_no[33] 	0
scalar dtelecom_cost_network.node[33].content_store 	decision_ratio[33] 	0
scalar dtelecom_cost_network.node[34].core_layer 	interests[34] 	0
scalar dtelecom_cost_network.node[34].core_layer 	data[34] 	0
scalar dtelecom_cost_network.node[34].content_store 	p_hit[34] 	-nan
scalar dtelecom_cost_network.node[34].content_store 	hits[34] 	0
scalar dtelecom_cost_network.node[34].content_store 	misses[34] 	0
scalar dtelecom_cost_network.node[34].content_store 	decision_yes[34] 	0
scalar dtelecom_cost_network.node[34].content_store 	decision_no[34] 	0
scalar dtelecom_cost_network.node[34].content_store 	decision_ratio[34] 	0
scalar dtelecom_cost_network.node[35].core_layer 	interests[35] 	0
scalar dtelecom_cost_network.node[35].core_layer 	data[35] 	0
scalar dtelecom_cost_network.node[35].content_store 	p_hit[35] 	-nan
scalar dtelecom_cost_network.node[35].content_store 	hits[35] 	0
scalar dtelecom_cost_network.node[35].content_store 	misses[35] 	0
scalar dtelecom_cost_network.node[35].content_store 	decision_yes[35] 	0
scalar dtelecom_cost_network.node[35].content_store 	decision_no[35] 	0
scalar dtelecom_cost_network.node[35].content_store 	decision_ratio[35] 	0
scalar dtelecom_cost_network.node[36].core_layer 	interests[36] 	0
scalar dtelecom_cost_network.node[36].core_layer 	data[36] 	0
scalar dtelecom_cost_network.node[36].content_store 	p_hit[36] 	-nan
scalar dtelecom_cost_network.node[36].content_store 	hits[36] 	0
scalar dtelecom_cost_network.node[36].content_store 	misses[36] 	0
scalar dtelecom_cost_network.node[36].content_store 	decision_yes[36] 	0
scalar dtelecom_cost_network.node[36].content_store 	decision_no[36] 	0
scalar dtelecom_cost_network.node[36].content_store 	decision_ratio[36] 	0
scalar dtelecom_cost_network.node[37].core_layer 	interests[37] 	0
scalar dtelecom_cost_network.node[37].core_layer 	data[37] 	0
scalar dtelecom_cost_network.node[37].content_store 	p_hit[37] 	-nan
scalar dtelecom_cost_network.node[37].content_store 	hits[37] 	0
scalar dtelecom_cost_network.node[37].content_store 	misses[37] 	0
scalar dtelecom_cost_network.node[37].content_store 	decision_yes[37] 	0
scalar dtelecom_cost_network.node[37].content_store 	decision_no[37] 	0
scalar dtelecom_cost_network.node[37].content_store 	decision_ratio[37] 	0
scalar dtelecom_cost_network.node[38].core_layer 	interests[38] 	0
scalar dtelecom_cost_network.node[38].core_layer 	data[38] 	0
scalar dtelecom_cost_network.node[38].content_store 	p_hit[38] 	-nan
scalar dtelecom_cost_network.node[38].content_store 	hits[38] 	0
scalar dtelecom_cost_network.node[38].content_store 	misses[38] 	0
scalar dtelecom_cost_network.node[38].content_store 	decision_yes[38] 	0
scalar dtelecom_cost_network.node[38].content_store 	decision_no[38] 	0
scalar dtelecom_cost_network.node[38].content_store 	decision_ratio[38] 	0
scalar dtelecom_cost_network.node[39].core_layer 	interests[39] 	0
scalar dtelecom_cost_network.node[39].core_layer 	data[39] 	0
scalar dtelecom_cost_network.node[39].content_store 	p_hit[39] 	-nan
scalar dtelecom_cost_network.node[39].content_store 	hits[39] 	0
scalar dtelecom_cost_network.node[39].content_store 	misses[39] 	0
scalar dtelecom_cost_network.node[39].content_store 	decision_yes[39] 	0
scalar dtelecom_cost_network.node[39].content_store 	decision_no[39] 	0
scalar dtelecom_cost_network.node[39].content_store 	decision_ratio[39] 	0
scalar dtelecom_cost_network.node[40].core_layer 	interests[40] 	0
scalar dtelecom_cost_network.node[40].core_layer 	data[40] 	0
scalar dtelecom_cost_network.node[40].content_store 	p_hit[40] 	-nan
scalar dtelecom_cost_network.node[40].content_store 	hits[40] 	0
scalar dtelecom_cost_network.node[40].content_store 	misses[40] 	0
scalar dtelecom_cost_network.node[40].content_store 	decision_yes[40] 	0
scalar dtelecom_cost_network.node[40].content_store 	decision_no[40] 	0
scalar dtelecom_cost_network.node[40].content_store 	decision_ratio[40] 	0
scalar dtelecom_cost_network.node[41].core_layer 	interests[41] 	0
scalar dtelecom_cost_network.node[41].core_layer 	data[41] 	0
scalar dtelecom_cost_network.node[41].content_store 	p_hit[41] 	-nan
scalar dtelecom_cost_network.node[41].content_store 	hits[41] 	0
scalar dtelecom_cost_network.node[41].content_store 	misses[41] 	0
scalar dtelecom_cost_network.node[41].content_store 	decision_yes[41] 	0
scalar dtelecom_cost_network.node[41].content_store 	decision_no[41] 	0
scalar dtelecom_cost_network.node[41].content_store 	decision_ratio[41] 	0
scalar dtelecom_cost_network.node[42].core_layer 	interests[42] 	0
scalar dtelecom_cost_network.node[42].core_layer 	data[42] 	0
scalar dtelecom_cost_network.node[42].content_store 	p_hit[42] 	-nan
scalar dtelecom_cost_network.node[42].content_store 	hits[42] 	0
scalar dtelecom_cost_network.node[42].content_store 	misses[42] 	0
scalar dtelecom_cost_network.node[42].content_store 	decision_yes[42] 	0
scalar dtelecom_cost_network.node[42].content_store 	decision_no[42] 	0
scalar dtelecom_cost_network.node[42].content_store 	decision_ratio[42] 	0
scalar dtelecom_cost_network.node[43].core_layer 	interests[43] 	0
scalar dtelecom_cost_network.node[43].core_layer 	data[43] 	0
scalar dtelecom_cost_network.node[43].content_store 	p_hit[43] 	-nan
scalar dtelecom_cost_network.node[43].content_store 	hits[43] 	0
scalar dtelecom_cost_network.node[43].content_store 	misses[43] 	0
scalar dtelecom_cost_network.node[43].content_store 	decision_yes[43] 	0
scalar dtelecom_cost_network.node[43].content_store 	decision_no[43] 	0
scalar dtelecom_cost_network.node[43].content_store 	decision_ratio[43] 	0
scalar dtelecom_cost_network.node[44].core_layer 	interests[44] 	0
scalar dtelecom_cost_network.node[44].core_layer 	data[44] 	0
scalar dtelecom_cost_network.node[44].content_store 	p_hit[44] 	-nan
scalar dtelecom_cost_network.node[44].content_store 	hits[44] 	0
scalar dtelecom_cost_network.node[44].content_store 	misses[44] 	0
scalar dtelecom_cost_network.node[44].content_store 	decision_yes[44] 	0
scalar dtelecom_cost_network.node[44].content_store 	decision_no[44] 	0
scalar dtelecom_cost_network.node[44].content_store 	decision_ratio[44] 	0
scalar dtelecom_cost_network.node[45].core_layer 	interests[45] 	0
scalar dtelecom_cost_network.node[45].core_layer 	data[45] 	0
scalar dtelecom_cost_network.node[45].content_store 	p_hit[45] 	-nan
scalar dtelecom_cost_network.node[45].content_store 	hits[45] 	0
scalar dtelecom_cost_network.node[45].content_store 	misses[45] 	0
scalar dtelecom_cost_network.node[45].content_store 	decision_yes[45] 	0
scalar dtelecom_cost_network.node[45].content_store 	decision_no[45] 	0
scalar dtelecom_cost_network.node[45].content_store 	decision_ratio[45] 	0
scalar dtelecom_cost_network.node[46].core_layer 	interests[46] 	0
scalar dtelecom_cost_network.node[46].core_layer 	data[46] 	0
scalar dtelecom_cost_network.node[46].content_store 	p_hit[46] 	-nan
scalar dtelecom_cost_network.node[46].content_store 	hits[46] 	0
scalar dtelecom_cost_network.node[46].content_store 	misses[46] 	0
scalar dtelecom_cost_network.node[46].content_store 	decision_yes[46] 	0
scalar dtelecom_cost_network.node[46].content_store 	decision_no[46] 	0
scalar dtelecom_cost_network.node[46].content_store 	decision_ratio[46] 	0
scalar dtelecom_cost_network.node[47].core_layer 	interests[47] 	0
scalar dtelecom_cost_network.node[47].core_layer 	data[47] 	0
scalar dtelecom_cost_network.node[47].content_store 	p_hit[47] 	-nan
scalar dtelecom_cost_network.node[47].content_store 	hits[47] 	0
scalar dtelecom_cost_network.node[47].content_store 	misses[47] 	0
scalar dtelecom_cost_network.node[47].content_store 	decision_yes[47] 	0
scalar dtelecom_cost_network.node[47].content_store 	decision_no[47] 	0
scalar dtelecom_cost_network.node[47].content_store 	decision_ratio[47] 	0
scalar dtelecom_cost_network.node[48].core_layer 	interests[48] 	126583
scalar dtelecom_cost_network.node[48].core_layer 	repo_load[48] 	120071
scalar dtelecom_cost_network.node[48].core_layer 	data[48] 	0
scalar dtelecom_cost_network.node[48].content_store 	p_hit[48] 	0.051444506766311
scalar dtelecom_cost_network.node[48].content_store 	hits[48] 	6512
scalar dtelecom_cost_network.node[48].content_store 	misses[48] 	120071
scalar dtelecom_cost_network.node[48].content_store 	decision_yes[48] 	1193
scalar dtelecom_cost_network.node[48].content_store 	decision_no[48] 	118878
scalar dtelecom_cost_network.node[48].content_store 	decision_ratio[48] 	0.0099357879921047
scalar dtelecom_cost_network.node[49].core_layer 	interests[49] 	0
scalar dtelecom_cost_network.node[49].core_layer 	data[49] 	0
scalar dtelecom_cost_network.node[49].content_store 	p_hit[49] 	-nan
scalar dtelecom_cost_network.node[49].content_store 	hits[49] 	0
scalar dtelecom_cost_network.node[49].content_store 	misses[49] 	0
scalar dtelecom_cost_network.node[49].content_store 	decision_yes[49] 	0
scalar dtelecom_cost_network.node[49].content_store 	decision_no[49] 	0
scalar dtelecom_cost_network.node[49].content_store 	decision_ratio[49] 	0
scalar dtelecom_cost_network.node[50].core_layer 	interests[50] 	0
scalar dtelecom_cost_network.node[50].core_layer 	data[50] 	0
scalar dtelecom_cost_network.node[50].content_store 	p_hit[50] 	-nan
scalar dtelecom_cost_network.node[50].content_store 	hits[50] 	0
scalar dtelecom_cost_network.node[50].content_store 	misses[50] 	0
scalar dtelecom_cost_network.node[50].content_store 	decision_yes[50] 	0
scalar dtelecom_cost_network.node[50].content_store 	decision_no[50] 	0
scalar dtelecom_cost_network.node[50].content_store 	decision_ratio[50] 	0
scalar dtelecom_cost_network.node[51].core_layer 	interests[51] 	0
scalar dtelecom_cost_network.node[51].core_layer 	data[51] 	0
scalar dtelecom_cost_network.node[51].content_store 	p_hit[51] 	-nan
scalar dtelecom_cost_network.node[51].content_store 	hits[51] 	0
scalar dtelecom_cost_network.node[51].content_store 	misses[51] 	0
scalar dtelecom_cost_network.node[51].content_store 	decision_yes[51] 	0
scalar dtelecom_cost_network.node[51].content_store 	decision_no[51] 	0
scalar dtelecom_cost_network.node[51].content_store 	decision_ratio[51] 	0
scalar dtelecom_cost_network.node[52].core_layer 	interests[52] 	0
scalar dtelecom_cost_network.node[52].core_layer 	data[52] 	0
scalar dtelecom_cost_network.node[52].content_store 	p_hit[52] 	-nan
scalar dtelecom_cost_network.node[52].content_store 	hits[52] 	0
scalar dtelecom_cost_network.node[52].content_store 	misses[52] 	0
scalar dtelecom_cost_network.node[52].content_store 	decision_yes[52] 	0
scalar dtelecom_cost_network.node[52].content_store 	decision_no[52] 	0
scalar dtelecom_cost_network.node[52].content_store 	decision_ratio[52] 	0
scalar dtelecom_cost_network.node[53].core_layer 	interests[53] 	0
scalar dtelecom_cost_network.node[53].core_layer 	data[53] 	0
scalar dtelecom_cost_network.node[53].content_store 	p_hit[53] 	-nan
scalar dtelecom_cost_network.node[53].content_store 	hits[53] 	0
scalar dtelecom_cost_network.node[53].content_store 	misses[53] 	0
scalar dtelecom_cost_network.node[53].content_store 	decision_yes[53] 	0
scalar dtelecom_cost_network.node[53].content_store 	decision_no[53] 	0
scalar dtelecom_cost_network.node[53].content_store 	decision_ratio[53] 	0
scalar dtelecom_cost_network.node[54].core_layer 	interests[54] 	0
scalar dtelecom_cost_network.node[54].core_layer 	data[54] 	0
scalar dtelecom_cost_network.node[54].content_store 	p_hit[54] 	-nan
scalar dtelecom_cost_network.node[54].content_store 	hits[54] 	0
scalar dtelecom_cost_network.node[54].content_store 	misses[54] 	0
scalar dtelecom_cost_network.node[54].content_store 	decision_yes[54] 	0
scalar dtelecom_cost_network.node[54].content_store 	decision_no[54] 	0
scalar dtelecom_cost_network.node[54].content_store 	decision_ratio[54] 	0
scalar dtelecom_cost_network.node[55].core_layer 	interests[55] 	0
scalar dtelecom_cost_network.node[55].core_layer 	data[55] 	0
scalar dtelecom_cost_network.node[55].content_store 	p_hit[55] 	-nan
scalar dtelecom_cost_network.node[55].content_store 	hits[55] 	0
scalar dtelecom_cost_network.node[55].content_store 	misses[55] 	0
scalar dtelecom_cost_network.node[55].content_store 	decision_yes[55] 	0
scalar dtelecom_cost_network.node[55].content_store 	decision_no[55] 	0
scalar dtelecom_cost_network.node[55].content_store 	decision_ratio[55] 	0
scalar dtelecom_cost_network.node[56].core_layer 	interests[56] 	0
scalar dtelecom_cost_network.node[56].core_layer 	data[56] 	0
scalar dtelecom_cost_network.node[56].content_store 	p_hit[56] 	-nan
scalar dtelecom_cost_network.node[56].content_store 	hits[56] 	0
scalar dtelecom_cost_network.node[56].content_store 	misses[56] 	0
scalar dtelecom_cost_network.node[56].content_store 	decision_yes[56] 	0
scalar dtelecom_cost_network.node[56].content_store 	decision_no[56] 	0
scalar dtelecom_cost_network.node[56].content_store 	decision_ratio[56] 	0
scalar dtelecom_cost_network.node[57].core_layer 	interests[57] 	0
scalar dtelecom_cost_network.node[57].core_layer 	data[57] 	0
scalar dtelecom_cost_network.node[57].content_store 	p_hit[57] 	-nan
scalar dtelecom_cost_network.node[57].content_store 	hits[57] 	0
scalar dtelecom_cost_network.node[57].content_store 	misses[57] 	0
scalar dtelecom_cost_network.node[57].content_store 	decision_yes[57] 	0
scalar dtelecom_cost_network.node[57].content_store 	decision_no[57] 	0
scalar dtelecom_cost_network.node[57].content_store 	decision_ratio[57] 	0
scalar dtelecom_cost_network.node[58].core_layer 	interests[58] 	184442
scalar dtelecom_cost_network.node[58].core_layer 	data[58] 	137224
scalar dtelecom_cost_network.node[58].content_store 	p_hit[58] 	0.25312564383383
scalar dtelecom_cost_network.node[58].content_store 	hits[58] 	46687
scalar dtelecom_cost_network.node[58].content_store 	misses[58] 	137755
scalar dtelecom_cost_network.node[58].content_store 	decision_yes[58] 	1359
scalar dtelecom_cost_network.node[58].content_store 	decision_no[58] 	135865
scalar dtelecom_cost_network.node[58].content_store 	decision_ratio[58] 	0.0099035154200431
scalar dtelecom_cost_network.node[59].core_layer 	interests[59] 	0
scalar dtelecom_cost_network.node[59].core_layer 	data[59] 	0
scalar dtelecom_cost_network.node[59].content_store 	p_hit[59] 	-nan
scalar dtelecom_cost_network.node[59].content_store 	hits[59] 	0
scalar dtelecom_cost_network.node[59].content_store 	misses[59] 	0
scalar dtelecom_cost_network.node[59].content_store 	decision_yes[59] 	0
scalar dtelecom_cost_network.node[59].content_store 	decision_no[59] 	0
scalar dtelecom_cost_network.node[59].content_store 	decision_ratio[59] 	0
scalar dtelecom_cost_network.node[60].core_layer 	interests[60] 	0
scalar dtelecom_cost_network.node[60].core_layer 	data[60] 	0
scalar dtelecom_cost_network.node[60].content_store 	p_hit[60] 	-nan
scalar dtelecom_cost_network.node[60].content_store 	hits[60] 	0
scalar dtelecom_cost_network.node[60].content_store 	misses[60] 	0
scalar dtelecom_cost_network.node[60].content_store 	decision_yes[60] 	0
scalar dtelecom_cost_network.node[60].content_store 	decision_no[60] 	0
scalar dtelecom_cost_network.node[60].content_store 	decision_ratio[60] 	0
scalar dtelecom_cost_network.node[61].core_layer 	interests[61] 	0
scalar dtelecom_cost_network.node[61].core_layer 	data[61] 	0
scalar dtelecom_cost_network.node[61].content_store 	p_hit[61] 	-nan
scalar dtelecom_cost_network.node[61].content_store 	hits[61] 	0
scalar dtelecom_cost_network.node[61].content_store 	misses[61] 	0
scalar dtelecom_cost_network.node[61].content_store 	decision_yes[61] 	0
scalar dtelecom_cost_network.node[61].content_store 	decision_no[61] 	0
scalar dtelecom_cost_network.node[61].content_store 	decision_ratio[61] 	0
scalar dtelecom_cost_network.node[62].core_layer 	interests[62] 	0
scalar dtelecom_cost_network.node[62].core_layer 	data[62] 	0
scalar dtelecom_cost_network.node[62].content_store 	p_hit[62] 	-nan
scalar dtelecom_cost_network.node[62].content_store 	hits[62] 	0
scalar dtelecom_cost_network.node[62].content_store 	misses[62] 	0
scalar dtelecom_cost_network.node[62].content_store 	decision_yes[62] 	0
scalar dtelecom_cost_network.node[62].content_store 	decision_no[62] 	0
scalar dtelecom_cost_network.node[62].content_store 	decision_ratio[62] 	0
scalar dtelecom_cost_network.node[63].core_layer 	interests[63] 	0
scalar dtelecom_cost_network.node[63].core_layer 	data[63] 	0
scalar dtelecom_cost_network.node[63].content_store 	p_hit[63] 	-nan
scalar dtelecom_cost_network.node[63].content_store 	hits[63] 	0
scalar dtelecom_cost_network.node[63].content_store 	misses[63] 	0
scalar dtelecom_cost_network.node[63].content_store 	decision_yes[63] 	0
scalar dtelecom_cost_network.node[63].content_store 	decision_no[63] 	0
scalar dtelecom_cost_network.node[63].content_store 	decision_ratio[63] 	0
scalar dtelecom_cost_network.node[64].core_layer 	interests[64] 	0
scalar dtelecom_cost_network.node[64].core_layer 	data[64] 	0
scalar dtelecom_cost_network.node[64].content_store 	p_hit[64] 	-nan
scalar dtelecom_cost_network.node[64].content_store 	hits[64] 	0
scalar dtelecom_cost_network.node[64].content_store 	misses[64] 	0
scalar dtelecom_cost_network.node[64].content_store 	decision_yes[64] 	0
scalar dtelecom_cost_network.node[64].content_store 	decision_no[64] 	0
scalar dtelecom_cost_network.node[64].content_store 	decision_ratio[64] 	0
scalar dtelecom_cost_network.node[65].core_layer 	interests[65] 	0
scalar dtelecom_cost_network.node[65].core_layer 	data[65] 	0
scalar dtelecom_cost_network.node[65].content_store 	p_hit[65] 	-nan
scalar dtelecom_cost_network.node[65].content_store 	hits[65] 	0
scalar dtelecom_cost_network.node[65].content_store 	misses[65] 	0
scalar dtelecom_cost_network.node[65].content_store 	decision_yes[65] 	0
scalar dtelecom_cost_network.node[65].content_store 	decision_no[65] 	0
scalar dtelecom_cost_network.node[65].content_store 	decision_ratio[65] 	0
scalar dtelecom_cost_network.node[66].core_layer 	interests[66] 	183892
scalar dtelecom_cost_network.node[66].core_layer 	data[66] 	137710
scalar dtelecom_cost_network.node[66].content_store 	p_hit[66] 	0.24265329650012
scalar dtelecom_cost_network.node[66].content_store 	hits[66] 	44622
scalar dtelecom_cost_network.node[66].content_store 	misses[66] 	139270
scalar dtelecom_cost_network.node[66].content_store 	decision_yes[66] 	1363
scalar dtelecom_cost_network.node[66].content_store 	decision_no[66] 	136347
scalar dtelecom_cost_network.node[66].content_store 	decision_ratio[66] 	0.0098976109215017
scalar dtelecom_cost_network.node[67].core_layer 	interests[67] 	0
scalar dtelecom_cost_network.node[67].core_layer 	data[67] 	0
scalar dtelecom_cost_network.node[67].content_store 	p_hit[67] 	-nan
scalar dtelecom_cost_network.node[67].content_store 	hits[67] 	0
scalar dtelecom_cost_network.node[67].content_store 	misses[67] 	0
scalar dtelecom_cost_network.node[67].content_store 	decision_yes[67] 	0
scalar dtelecom_cost_network.node[67].content_store 	decision_no[67] 	0
scalar dtelecom_cost_network.node[67].content_store 	decision_ratio[67] 	0
scalar dtelecom_cost_network.client[26] 	hdistance[26] 	1.8794354703856
scalar dtelecom_cost_network.client[26] 	downloads[26] 	179406
scalar dtelecom_cost_network.client[26] 	avg_time[26] 	0.008515183216
scalar dtelecom_cost_network.client[58] 	hdistance[58] 	2.0913849910521
scalar dtelecom_cost_network.client[58] 	downloads[58] 	179373
scalar dtelecom_cost_network.client[58] 	avg_time[58] 	0.010640624056
scalar dtelecom_cost_network.client[66] 	hdistance[66] 	2.1322440929441
scalar dtelecom_cost_network.client[66] 	downloads[66] 	178473
scalar dtelecom_cost_network.client[66] 	avg_time[66] 	0.09230658141
