version 2
run General-1-20150720-10:02:58-11451
attr C 1e2
attr D lce
attr F spr
attr R lru_repr
attr a 1
attr brates 0.3_0.7_1.5_2.5_3.5
attr configname General
attr ctlg 1e4
attr datetime 20150720-10:02:58
attr experiment General
attr inifile omnetpp.ini
attr iterationvars "$net=abilene_nodelay, $rep=0, $lambda=100, $a=1, $ctlg=1e4, $brates=0.3_0.7_1.5_2.5_3.5, $F=spr, $ttl=1000, $D=lce, $R=lru_repr, $C=1e2, $window=60, $variance=0.05, $mytime=180"
attr iterationvars2 "$net=abilene_nodelay, $rep=0, $lambda=100, $a=1, $ctlg=1e4, $brates=0.3_0.7_1.5_2.5_3.5, $F=spr, $ttl=1000, $D=lce, $R=lru_repr, $C=1e2, $window=60, $variance=0.05, $mytime=180, $repetition=0"
attr lambda 100
attr measurement "$net=abilene_nodelay, $rep=0, $lambda=100, $a=1, $ctlg=1e4, $brates=0.3_0.7_1.5_2.5_3.5, $F=spr, $ttl=1000, $D=lce, $R=lru_repr, $C=1e2, $window=60, $variance=0.05, $mytime=180"
attr mytime 180
attr net abilene_nodelay
attr network networks.${net=abilene_nodelay}_network
attr processid 11451
attr rep 0
attr repetition 0
attr replication #0
attr resultdir results
attr runnumber 1
attr seedset 0
attr ttl 1000
attr variance 0.05
attr window 60

scalar . 	C 	1e2
scalar . 	a 	1
scalar . 	ctlg 	1e4
scalar . 	lambda 	100
scalar . 	mytime 	180
scalar . 	rep 	0
scalar . 	ttl 	1000
scalar . 	variance 	0.05
scalar . 	window 	60
scalar abilene_nodelay_network.content_distribution 	repo-0 	5
scalar abilene_nodelay_network.content_distribution 	repo-1 	8
scalar abilene_nodelay_network.content_distribution 	repo-2 	9
scalar abilene_nodelay_network.content_distribution 	repo-3 	0
scalar abilene_nodelay_network.content_distribution 	repo-4 	1
scalar abilene_nodelay_network.content_distribution 	repo-5 	7
scalar abilene_nodelay_network.content_distribution 	repo-6 	6
scalar abilene_nodelay_network.content_distribution 	repo-7 	2
scalar abilene_nodelay_network.content_distribution 	repo-8 	4
scalar abilene_nodelay_network.content_distribution 	repo-9 	10
scalar abilene_nodelay_network.content_distribution 	repo-10 	3
scalar abilene_nodelay_network.content_distribution 	client-0 	10
scalar abilene_nodelay_network.content_distribution 	client-1 	9
scalar abilene_nodelay_network.content_distribution 	client-2 	8
scalar abilene_nodelay_network.content_distribution 	client-3 	7
scalar abilene_nodelay_network.content_distribution 	client-4 	3
scalar abilene_nodelay_network.content_distribution 	client-5 	6
scalar abilene_nodelay_network.content_distribution 	client-6 	5
scalar abilene_nodelay_network.content_distribution 	client-7 	1
scalar abilene_nodelay_network.content_distribution 	client-8 	4
scalar abilene_nodelay_network.content_distribution 	client-9 	0
scalar abilene_nodelay_network.content_distribution 	client-10 	2
scalar abilene_nodelay_network.content_distribution 	repo-0_card 	930
scalar abilene_nodelay_network.content_distribution 	repo-0_price 	0
scalar abilene_nodelay_network.content_distribution 	repo-1_card 	833
scalar abilene_nodelay_network.content_distribution 	repo-1_price 	0
scalar abilene_nodelay_network.content_distribution 	repo-2_card 	911
scalar abilene_nodelay_network.content_distribution 	repo-2_price 	0
scalar abilene_nodelay_network.content_distribution 	repo-3_card 	918
scalar abilene_nodelay_network.content_distribution 	repo-3_price 	0
scalar abilene_nodelay_network.content_distribution 	repo-4_card 	885
scalar abilene_nodelay_network.content_distribution 	repo-4_price 	0
scalar abilene_nodelay_network.content_distribution 	repo-5_card 	973
scalar abilene_nodelay_network.content_distribution 	repo-5_price 	0
scalar abilene_nodelay_network.content_distribution 	repo-6_card 	915
scalar abilene_nodelay_network.content_distribution 	repo-6_price 	0
scalar abilene_nodelay_network.content_distribution 	repo-7_card 	937
scalar abilene_nodelay_network.content_distribution 	repo-7_price 	0
scalar abilene_nodelay_network.content_distribution 	repo-8_card 	890
scalar abilene_nodelay_network.content_distribution 	repo-8_price 	0
scalar abilene_nodelay_network.content_distribution 	repo-9_card 	891
scalar abilene_nodelay_network.content_distribution 	repo-9_price 	0
scalar abilene_nodelay_network.content_distribution 	repo-10_card 	917
scalar abilene_nodelay_network.content_distribution 	repo-10_price 	0
scalar abilene_nodelay_network.statistics 	stabilization_time 	36060
scalar abilene_nodelay_network.statistics 	p_hit 	0.25600513094432
scalar abilene_nodelay_network.statistics 	interests 	45782.818181818
scalar abilene_nodelay_network.statistics 	data 	23009.090909091
scalar abilene_nodelay_network.statistics 	hdistance 	1.3355932808633
scalar abilene_nodelay_network.statistics 	avg_time 	0
scalar abilene_nodelay_network.statistics 	downloads 	198584
scalar abilene_nodelay_network.statistics 	total_cost 	0
scalar abilene_nodelay_network.statistics 	total_replicas 	10000
scalar abilene_nodelay_network.statistics 	"representations_downloaded 0.527792:0.0487199:0.0343079:0.0293881:0.359792:" 	0
scalar abilene_nodelay_network.statistics 	"slots_per_representation 100:233:500:833:1167:" 	0
scalar abilene_nodelay_network.statistics 	inner_hit 	0.38774523627281
scalar abilene_nodelay_network.statistics 	execution_time 	1022
scalar abilene_nodelay_network.node[0].core_layer 	interests[0] 	28907
scalar abilene_nodelay_network.node[0].core_layer 	repo_load[0] 	9721
scalar abilene_nodelay_network.node[0].core_layer 	data[0] 	9806
scalar abilene_nodelay_network.node[0].core_layer 	slots_sent[face$o[1]->client[0]] 	10249937
scalar abilene_nodelay_network.node[0].core_layer 	slots_sent[face$o[2]->node[1]] 	1677550
scalar abilene_nodelay_network.node[0].core_layer 	slots_sent[face$o[3]->node[10]] 	440742
scalar abilene_nodelay_network.node[0].content_store 	p_hit[0] 	0.32448887812641
scalar abilene_nodelay_network.node[0].content_store 	hits[0] 	9380
scalar abilene_nodelay_network.node[0].content_store 	misses[0] 	19527
scalar abilene_nodelay_network.node[0].content_store 	decision_yes[0] 	9806
scalar abilene_nodelay_network.node[0].content_store 	decision_no[0] 	9721
scalar abilene_nodelay_network.node[0].content_store 	decision_ratio[0] 	0.50217647360066
scalar abilene_nodelay_network.node[0].content_store 	"representation_breakdown[0] 289:44:18:8:53:" 	0
scalar abilene_nodelay_network.node[0].proactive_component 	hdistance[0].proactive_component 	2.536585463211
scalar abilene_nodelay_network.node[0].proactive_component 	downloads[0].proactive_component 	501046
scalar abilene_nodelay_network.node[0].proactive_component 	avg_time[0].proactive_component 	0
scalar abilene_nodelay_network.node[1].core_layer 	interests[1] 	54320
scalar abilene_nodelay_network.node[1].core_layer 	repo_load[1] 	11459
scalar abilene_nodelay_network.node[1].core_layer 	data[1] 	30195
scalar abilene_nodelay_network.node[1].core_layer 	slots_sent[face$o[1]->client[1]] 	8685988
scalar abilene_nodelay_network.node[1].core_layer 	slots_sent[face$o[2]->node[0]] 	2172951
scalar abilene_nodelay_network.node[1].core_layer 	slots_sent[face$o[3]->node[10]] 	1869802
scalar abilene_nodelay_network.node[1].core_layer 	slots_sent[face$o[4]->node[2]] 	4283757
scalar abilene_nodelay_network.node[1].content_store 	p_hit[1] 	0.23317378497791
scalar abilene_nodelay_network.node[1].content_store 	hits[1] 	12666
scalar abilene_nodelay_network.node[1].content_store 	misses[1] 	41654
scalar abilene_nodelay_network.node[1].content_store 	decision_yes[1] 	30195
scalar abilene_nodelay_network.node[1].content_store 	decision_no[1] 	11459
scalar abilene_nodelay_network.node[1].content_store 	decision_ratio[1] 	0.72490036971239
scalar abilene_nodelay_network.node[1].content_store 	"representation_breakdown[1] 290:50:20:12:48:" 	0
scalar abilene_nodelay_network.node[1].proactive_component 	hdistance[1].proactive_component 	2.1540572055696
scalar abilene_nodelay_network.node[1].proactive_component 	downloads[1].proactive_component 	1224636
scalar abilene_nodelay_network.node[1].proactive_component 	avg_time[1].proactive_component 	0
scalar abilene_nodelay_network.node[2].core_layer 	interests[2] 	73243
scalar abilene_nodelay_network.node[2].core_layer 	repo_load[2] 	14865
scalar abilene_nodelay_network.node[2].core_layer 	data[2] 	43665
scalar abilene_nodelay_network.node[2].core_layer 	slots_sent[face$o[1]->client[2]] 	8657367
scalar abilene_nodelay_network.node[2].core_layer 	slots_sent[face$o[2]->node[1]] 	4880118
scalar abilene_nodelay_network.node[2].core_layer 	slots_sent[face$o[3]->node[3]] 	6011193
scalar abilene_nodelay_network.node[2].core_layer 	slots_sent[face$o[4]->node[8]] 	2527192
scalar abilene_nodelay_network.node[2].content_store 	p_hit[2] 	0.20087926491269
scalar abilene_nodelay_network.node[2].content_store 	hits[2] 	14713
scalar abilene_nodelay_network.node[2].content_store 	misses[2] 	58530
scalar abilene_nodelay_network.node[2].content_store 	decision_yes[2] 	43665
scalar abilene_nodelay_network.node[2].content_store 	decision_no[2] 	14865
scalar abilene_nodelay_network.node[2].content_store 	decision_ratio[2] 	0.74602767811379
scalar abilene_nodelay_network.node[2].content_store 	"representation_breakdown[2] 351:58:21:17:37:" 	0
scalar abilene_nodelay_network.node[2].proactive_component 	hdistance[2].proactive_component 	2.0520627959133
scalar abilene_nodelay_network.node[2].proactive_component 	downloads[2].proactive_component 	1504875
scalar abilene_nodelay_network.node[2].proactive_component 	avg_time[2].proactive_component 	0
scalar abilene_nodelay_network.node[3].core_layer 	interests[3] 	67689
scalar abilene_nodelay_network.node[3].core_layer 	repo_load[3] 	10734
scalar abilene_nodelay_network.node[3].core_layer 	data[3] 	41683
scalar abilene_nodelay_network.node[3].core_layer 	slots_sent[face$o[1]->client[3]] 	9108159
scalar abilene_nodelay_network.node[3].core_layer 	slots_sent[face$o[2]->node[2]] 	5262982
scalar abilene_nodelay_network.node[3].core_layer 	slots_sent[face$o[3]->node[4]] 	3509334
scalar abilene_nodelay_network.node[3].core_layer 	slots_sent[face$o[4]->node[7]] 	2662184
scalar abilene_nodelay_network.node[3].content_store 	p_hit[3] 	0.22562011552837
scalar abilene_nodelay_network.node[3].content_store 	hits[3] 	15272
scalar abilene_nodelay_network.node[3].content_store 	misses[3] 	52417
scalar abilene_nodelay_network.node[3].content_store 	decision_yes[3] 	41683
scalar abilene_nodelay_network.node[3].content_store 	decision_no[3] 	10734
scalar abilene_nodelay_network.node[3].content_store 	decision_ratio[3] 	0.79521910830456
scalar abilene_nodelay_network.node[3].content_store 	"representation_breakdown[3] 295:66:22:15:41:" 	0
scalar abilene_nodelay_network.node[3].proactive_component 	hdistance[3].proactive_component 	2.0443507858261
scalar abilene_nodelay_network.node[3].proactive_component 	downloads[3].proactive_component 	1519229
scalar abilene_nodelay_network.node[3].proactive_component 	avg_time[3].proactive_component 	0
scalar abilene_nodelay_network.node[4].core_layer 	interests[4] 	41019
scalar abilene_nodelay_network.node[4].core_layer 	repo_load[4] 	9899
scalar abilene_nodelay_network.node[4].core_layer 	data[4] 	19367
scalar abilene_nodelay_network.node[4].core_layer 	slots_sent[face$o[1]->client[4]] 	10116383
scalar abilene_nodelay_network.node[4].core_layer 	slots_sent[face$o[2]->node[3]] 	3235800
scalar abilene_nodelay_network.node[4].core_layer 	slots_sent[face$o[3]->node[5]] 	1946118
scalar abilene_nodelay_network.node[4].content_store 	p_hit[4] 	0.28652575635681
scalar abilene_nodelay_network.node[4].content_store 	hits[4] 	11753
scalar abilene_nodelay_network.node[4].content_store 	misses[4] 	29266
scalar abilene_nodelay_network.node[4].content_store 	decision_yes[4] 	19367
scalar abilene_nodelay_network.node[4].content_store 	decision_no[4] 	9899
scalar abilene_nodelay_network.node[4].content_store 	decision_ratio[4] 	0.66175767101756
scalar abilene_nodelay_network.node[4].content_store 	"representation_breakdown[4] 290:48:15:14:49:" 	0
scalar abilene_nodelay_network.node[4].proactive_component 	hdistance[4].proactive_component 	2.1968802952744
scalar abilene_nodelay_network.node[4].proactive_component 	downloads[4].proactive_component 	844503
scalar abilene_nodelay_network.node[4].proactive_component 	avg_time[4].proactive_component 	0
scalar abilene_nodelay_network.node[5].core_layer 	interests[5] 	32384
scalar abilene_nodelay_network.node[5].core_layer 	repo_load[5] 	12615
scalar abilene_nodelay_network.node[5].core_layer 	data[5] 	11518
scalar abilene_nodelay_network.node[5].core_layer 	slots_sent[face$o[1]->client[5]] 	8600306
scalar abilene_nodelay_network.node[5].core_layer 	slots_sent[face$o[2]->node[4]] 	1908742
scalar abilene_nodelay_network.node[5].core_layer 	slots_sent[face$o[3]->node[6]] 	1364467
scalar abilene_nodelay_network.node[5].content_store 	p_hit[5] 	0.25478631422925
scalar abilene_nodelay_network.node[5].content_store 	hits[5] 	8251
scalar abilene_nodelay_network.node[5].content_store 	misses[5] 	24133
scalar abilene_nodelay_network.node[5].content_store 	decision_yes[5] 	11518
scalar abilene_nodelay_network.node[5].content_store 	decision_no[5] 	12615
scalar abilene_nodelay_network.node[5].content_store 	decision_ratio[5] 	0.4772717855219
scalar abilene_nodelay_network.node[5].content_store 	"representation_breakdown[5] 342:42:16:13:46:" 	0
scalar abilene_nodelay_network.node[5].proactive_component 	hdistance[5].proactive_component 	2.3179530170698
scalar abilene_nodelay_network.node[5].proactive_component 	downloads[5].proactive_component 	547518
scalar abilene_nodelay_network.node[5].proactive_component 	avg_time[5].proactive_component 	0
scalar abilene_nodelay_network.node[6].core_layer 	interests[6] 	36203
scalar abilene_nodelay_network.node[6].core_layer 	repo_load[6] 	10203
scalar abilene_nodelay_network.node[6].core_layer 	data[6] 	15490
scalar abilene_nodelay_network.node[6].core_layer 	slots_sent[face$o[1]->client[6]] 	10076953
scalar abilene_nodelay_network.node[6].core_layer 	slots_sent[face$o[2]->node[5]] 	1186626
scalar abilene_nodelay_network.node[6].core_layer 	slots_sent[face$o[3]->node[7]] 	2789810
scalar abilene_nodelay_network.node[6].content_store 	p_hit[6] 	0.29030743308566
scalar abilene_nodelay_network.node[6].content_store 	hits[6] 	10510
scalar abilene_nodelay_network.node[6].content_store 	misses[6] 	25693
scalar abilene_nodelay_network.node[6].content_store 	decision_yes[6] 	15490
scalar abilene_nodelay_network.node[6].content_store 	decision_no[6] 	10203
scalar abilene_nodelay_network.node[6].content_store 	decision_ratio[6] 	0.60288794613319
scalar abilene_nodelay_network.node[6].content_store 	"representation_breakdown[6] 324:49:12:13:48:" 	0
scalar abilene_nodelay_network.node[6].proactive_component 	hdistance[6].proactive_component 	2.1862162012151
scalar abilene_nodelay_network.node[6].proactive_component 	downloads[6].proactive_component 	702651
scalar abilene_nodelay_network.node[6].proactive_component 	avg_time[6].proactive_component 	0
scalar abilene_nodelay_network.node[7].core_layer 	interests[7] 	49995
scalar abilene_nodelay_network.node[7].core_layer 	repo_load[7] 	10249
scalar abilene_nodelay_network.node[7].core_layer 	data[7] 	26750
scalar abilene_nodelay_network.node[7].core_layer 	slots_sent[face$o[1]->client[7]] 	9929442
scalar abilene_nodelay_network.node[7].core_layer 	slots_sent[face$o[2]->node[3]] 	2051710
scalar abilene_nodelay_network.node[7].core_layer 	slots_sent[face$o[3]->node[6]] 	2897024
scalar abilene_nodelay_network.node[7].core_layer 	slots_sent[face$o[4]->node[8]] 	2057338
scalar abilene_nodelay_network.node[7].content_store 	p_hit[7] 	0.25994599459946
scalar abilene_nodelay_network.node[7].content_store 	hits[7] 	12996
scalar abilene_nodelay_network.node[7].content_store 	misses[7] 	36999
scalar abilene_nodelay_network.node[7].content_store 	decision_yes[7] 	26750
scalar abilene_nodelay_network.node[7].content_store 	decision_no[7] 	10249
scalar abilene_nodelay_network.node[7].content_store 	decision_ratio[7] 	0.72299251331117
scalar abilene_nodelay_network.node[7].content_store 	"representation_breakdown[7] 341:53:15:11:45:" 	0
scalar abilene_nodelay_network.node[7].proactive_component 	hdistance[7].proactive_component 	1.9554731713388
scalar abilene_nodelay_network.node[7].proactive_component 	downloads[7].proactive_component 	1092712
scalar abilene_nodelay_network.node[7].proactive_component 	avg_time[7].proactive_component 	0
scalar abilene_nodelay_network.node[8].core_layer 	interests[8] 	47947
scalar abilene_nodelay_network.node[8].core_layer 	repo_load[8] 	9330
scalar abilene_nodelay_network.node[8].core_layer 	data[8] 	25545
scalar abilene_nodelay_network.node[8].core_layer 	slots_sent[face$o[1]->client[8]] 	9989910
scalar abilene_nodelay_network.node[8].core_layer 	slots_sent[face$o[2]->node[2]] 	1799243
scalar abilene_nodelay_network.node[8].core_layer 	slots_sent[face$o[3]->node[7]] 	1966641
scalar abilene_nodelay_network.node[8].core_layer 	slots_sent[face$o[4]->node[9]] 	2681800
scalar abilene_nodelay_network.node[8].content_store 	p_hit[8] 	0.27263436711369
scalar abilene_nodelay_network.node[8].content_store 	hits[8] 	13072
scalar abilene_nodelay_network.node[8].content_store 	misses[8] 	34875
scalar abilene_nodelay_network.node[8].content_store 	decision_yes[8] 	25545
scalar abilene_nodelay_network.node[8].content_store 	decision_no[8] 	9330
scalar abilene_nodelay_network.node[8].content_store 	decision_ratio[8] 	0.73247311827957
scalar abilene_nodelay_network.node[8].content_store 	"representation_breakdown[8] 318:48:22:6:49:" 	0
scalar abilene_nodelay_network.node[8].proactive_component 	hdistance[8].proactive_component 	1.9623343487013
scalar abilene_nodelay_network.node[8].proactive_component 	downloads[8].proactive_component 	1095826
scalar abilene_nodelay_network.node[8].proactive_component 	avg_time[8].proactive_component 	0
scalar abilene_nodelay_network.node[9].core_layer 	interests[9] 	36677
scalar abilene_nodelay_network.node[9].core_layer 	repo_load[9] 	10908
scalar abilene_nodelay_network.node[9].core_layer 	data[9] 	15246
scalar abilene_nodelay_network.node[9].core_layer 	slots_sent[face$o[1]->client[9]] 	9798249
scalar abilene_nodelay_network.node[9].core_layer 	slots_sent[face$o[2]->node[10]] 	1442869
scalar abilene_nodelay_network.node[9].core_layer 	slots_sent[face$o[3]->node[8]] 	2511187
scalar abilene_nodelay_network.node[9].content_store 	p_hit[9] 	0.28691005262153
scalar abilene_nodelay_network.node[9].content_store 	hits[9] 	10523
scalar abilene_nodelay_network.node[9].content_store 	misses[9] 	26154
scalar abilene_nodelay_network.node[9].content_store 	decision_yes[9] 	15246
scalar abilene_nodelay_network.node[9].content_store 	decision_no[9] 	10908
scalar abilene_nodelay_network.node[9].content_store 	decision_ratio[9] 	0.58293186510668
scalar abilene_nodelay_network.node[9].content_store 	"representation_breakdown[9] 324:43:20:7:50:" 	0
scalar abilene_nodelay_network.node[9].proactive_component 	hdistance[9].proactive_component 	2.1150391259005
scalar abilene_nodelay_network.node[9].proactive_component 	downloads[9].proactive_component 	723945
scalar abilene_nodelay_network.node[9].proactive_component 	avg_time[9].proactive_component 	0
scalar abilene_nodelay_network.node[10].core_layer 	interests[10] 	35227
scalar abilene_nodelay_network.node[10].core_layer 	repo_load[10] 	11601
scalar abilene_nodelay_network.node[10].core_layer 	data[10] 	13835
scalar abilene_nodelay_network.node[10].core_layer 	slots_sent[face$o[1]->client[10]] 	9171552
scalar abilene_nodelay_network.node[10].core_layer 	slots_sent[face$o[2]->node[0]] 	597525
scalar abilene_nodelay_network.node[10].core_layer 	slots_sent[face$o[3]->node[1]] 	1628231
scalar abilene_nodelay_network.node[10].core_layer 	slots_sent[face$o[4]->node[9]] 	1499915
scalar abilene_nodelay_network.node[10].content_store 	p_hit[10] 	0.27794021631135
scalar abilene_nodelay_network.node[10].content_store 	hits[10] 	9791
scalar abilene_nodelay_network.node[10].content_store 	misses[10] 	25436
scalar abilene_nodelay_network.node[10].content_store 	decision_yes[10] 	13835
scalar abilene_nodelay_network.node[10].content_store 	decision_no[10] 	11601
scalar abilene_nodelay_network.node[10].content_store 	decision_ratio[10] 	0.54391413744299
scalar abilene_nodelay_network.node[10].content_store 	"representation_breakdown[10] 300:55:26:10:45:" 	0
scalar abilene_nodelay_network.node[10].proactive_component 	hdistance[10].proactive_component 	2.1244481950892
scalar abilene_nodelay_network.node[10].proactive_component 	downloads[10].proactive_component 	702694
scalar abilene_nodelay_network.node[10].proactive_component 	avg_time[10].proactive_component 	0
scalar abilene_nodelay_network.client[0] 	hdistance[0].real 	1.4382971582009
scalar abilene_nodelay_network.client[0] 	downloads[0].real 	17876
scalar abilene_nodelay_network.client[0] 	avg_time[0].real 	0
scalar abilene_nodelay_network.client[1] 	hdistance[1].real 	1.3588951981917
scalar abilene_nodelay_network.client[1] 	downloads[1].real 	18139
scalar abilene_nodelay_network.client[1] 	avg_time[1].real 	0
scalar abilene_nodelay_network.client[2] 	hdistance[2].real 	1.2090209634255
scalar abilene_nodelay_network.client[2] 	downloads[2].real 	17936
scalar abilene_nodelay_network.client[2] 	avg_time[2].real 	0
scalar abilene_nodelay_network.client[3] 	hdistance[3].real 	1.2331580125336
scalar abilene_nodelay_network.client[3] 	downloads[3].real 	17872
scalar abilene_nodelay_network.client[3] 	avg_time[3].real 	0
scalar abilene_nodelay_network.client[4] 	hdistance[4].real 	1.3720292002854
scalar abilene_nodelay_network.client[4] 	downloads[4].real 	18219
scalar abilene_nodelay_network.client[4] 	avg_time[4].real 	0
scalar abilene_nodelay_network.client[5] 	hdistance[5].real 	1.5645687130464
scalar abilene_nodelay_network.client[5] 	downloads[5].real 	18097
scalar abilene_nodelay_network.client[5] 	avg_time[5].real 	0
scalar abilene_nodelay_network.client[6] 	hdistance[6].real 	1.4034794245567
scalar abilene_nodelay_network.client[6] 	downloads[6].real 	17934
scalar abilene_nodelay_network.client[6] 	avg_time[6].real 	0
scalar abilene_nodelay_network.client[7] 	hdistance[7].real 	1.223810315218
scalar abilene_nodelay_network.client[7] 	downloads[7].real 	18051
scalar abilene_nodelay_network.client[7] 	avg_time[7].real 	0
scalar abilene_nodelay_network.client[8] 	hdistance[8].real 	1.1708204675783
scalar abilene_nodelay_network.client[8] 	downloads[8].real 	18136
scalar abilene_nodelay_network.client[8] 	avg_time[8].real 	0
scalar abilene_nodelay_network.client[9] 	hdistance[9].real 	1.3045299239502
scalar abilene_nodelay_network.client[9] 	downloads[9].real 	18146
scalar abilene_nodelay_network.client[9] 	avg_time[9].real 	0
scalar abilene_nodelay_network.client[10] 	hdistance[10].real 	1.4129167125096
scalar abilene_nodelay_network.client[10] 	downloads[10].real 	18178
scalar abilene_nodelay_network.client[10] 	avg_time[10].real 	0
