version 2
run General-12-20140520-16:40:30-16168
attr D costprobprodcorr0.01
attr F nrr
attr R lru
attr a 1
attr configname General
attr csize 1e3
attr ctlg 1e5
attr datetime 20140520-16:40:30
attr experiment General
attr inifile omnetpp.ini
attr iterationvars "$net=one_cache_scenario_3_links, $rep=3, $priceratiovalue=10, $weights=0.333_0.333_0.334, $a=1, $ctlg=1e5, $F=nrr, $ttl=1000, $D=costprobprodcorr0.01, $xi=0.025, $R=lru, $csize=1e3, $pricebits=0"
attr iterationvars2 "$net=one_cache_scenario_3_links, $rep=3, $priceratiovalue=10, $weights=0.333_0.333_0.334, $a=1, $ctlg=1e5, $F=nrr, $ttl=1000, $D=costprobprodcorr0.01, $xi=0.025, $R=lru, $csize=1e3, $pricebits=0, $repetition=0"
attr measurement "$net=one_cache_scenario_3_links, $rep=3, $priceratiovalue=10, $weights=0.333_0.333_0.334, $a=1, $ctlg=1e5, $F=nrr, $ttl=1000, $D=costprobprodcorr0.01, $xi=0.025, $R=lru, $csize=1e3, $pricebits=0"
attr net one_cache_scenario_3_links
attr network networks.${net=one_cache_scenario_3_links}_network
attr pricebits 0
attr priceratiovalue 10
attr processid 16168
attr rep 3
attr repetition 0
attr replication #0
attr resultdir results
attr runnumber 12
attr seedset 3
attr ttl 1000
attr weights 0.333_0.333_0.334
attr xi 0.025

scalar . 	a 	1
scalar . 	csize 	1e3
scalar . 	ctlg 	1e5
scalar . 	pricebits 	0
scalar . 	priceratiovalue 	10
scalar . 	rep 	3
scalar . 	ttl 	1000
scalar . 	xi 	0.025
scalar one_cache_scenario_3_links_network.content_distribution 	repo-0 	4
scalar one_cache_scenario_3_links_network.content_distribution 	repo-1 	5
scalar one_cache_scenario_3_links_network.content_distribution 	repo-2 	6
scalar one_cache_scenario_3_links_network.content_distribution 	client-0 	0
scalar one_cache_scenario_3_links_network.content_distribution 	repo-0_card 	33496
scalar one_cache_scenario_3_links_network.content_distribution 	repo-1_card 	33170
scalar one_cache_scenario_3_links_network.content_distribution 	repo-2_card 	33334
scalar one_cache_scenario_3_links_network.statistics 	repo_popularity[0] 	0.34985511604573
scalar one_cache_scenario_3_links_network.statistics 	repo_popularity[1] 	0.30142619076767
scalar one_cache_scenario_3_links_network.statistics 	repo_popularity[2] 	0.3487186931866
scalar one_cache_scenario_3_links_network.node[1].face$o[2].channel 	price[1] 	0
scalar one_cache_scenario_3_links_network.node[1].face$o[2].channel 	represented_price[1] 	0
scalar one_cache_scenario_3_links_network.node[2].face$o[2].channel 	price[2] 	0
scalar one_cache_scenario_3_links_network.node[2].face$o[2].channel 	represented_price[2] 	0
scalar one_cache_scenario_3_links_network.node[3].face$o[2].channel 	price[3] 	0
scalar one_cache_scenario_3_links_network.node[3].face$o[2].channel 	represented_price[3] 	0
scalar one_cache_scenario_3_links_network.node[4].face$o[1].channel 	price[4] 	0
scalar one_cache_scenario_3_links_network.node[4].face$o[1].channel 	represented_price[4] 	0
scalar one_cache_scenario_3_links_network.node[5].face$o[1].channel 	price[5] 	1
scalar one_cache_scenario_3_links_network.node[5].face$o[1].channel 	represented_price[5] 	1
scalar one_cache_scenario_3_links_network.node[6].face$o[1].channel 	price[6] 	10
scalar one_cache_scenario_3_links_network.node[6].face$o[1].channel 	represented_price[6] 	10
scalar one_cache_scenario_3_links_network.statistics 	p_hit 	0.16527041645468
scalar one_cache_scenario_3_links_network.statistics 	interests 	57842
scalar one_cache_scenario_3_links_network.statistics 	data 	32188.285714286
scalar one_cache_scenario_3_links_network.statistics 	hdistance 	1.254722234597
scalar one_cache_scenario_3_links_network.statistics 	avg_time 	0
scalar one_cache_scenario_3_links_network.statistics 	downloads 	179576
scalar one_cache_scenario_3_links_network.statistics 	total_cost 	271406
scalar one_cache_scenario_3_links_network.statistics 	total_replicas 	100000
scalar one_cache_scenario_3_links_network.statistics 	interests_sent 	179576
scalar one_cache_scenario_3_links_network.node[0].core_layer 	interests[0] 	179576
scalar one_cache_scenario_3_links_network.node[0].core_layer 	data[0] 	112659
scalar one_cache_scenario_3_links_network.node[0].core_layer 	repo_int[0] 	112659
scalar one_cache_scenario_3_links_network.node[0].content_store 	p_hit[0] 	0.37263888270147
scalar one_cache_scenario_3_links_network.node[0].content_store 	hits[0] 	66917
scalar one_cache_scenario_3_links_network.node[0].content_store 	misses[0] 	112659
scalar one_cache_scenario_3_links_network.node[0].content_store 	decision_yes[0] 	726
scalar one_cache_scenario_3_links_network.node[0].content_store 	decision_no[0] 	111933
scalar one_cache_scenario_3_links_network.node[0].content_store 	decision_ratio[0] 	0.0064442254946342
scalar one_cache_scenario_3_links_network.node[0].content_store 	correction_factor[0] 	0.014560475784388
scalar one_cache_scenario_3_links_network.node[0].content_store 	xi[0] 	0.025
scalar one_cache_scenario_3_links_network.node[1].core_layer 	interests[1] 	62869
scalar one_cache_scenario_3_links_network.node[1].core_layer 	data[1] 	62869
scalar one_cache_scenario_3_links_network.node[1].content_store 	p_hit[1] 	0
scalar one_cache_scenario_3_links_network.node[1].content_store 	hits[1] 	0
scalar one_cache_scenario_3_links_network.node[1].content_store 	misses[1] 	62869
scalar one_cache_scenario_3_links_network.node[1].content_store 	decision_yes[1] 	0
scalar one_cache_scenario_3_links_network.node[1].content_store 	decision_no[1] 	62869
scalar one_cache_scenario_3_links_network.node[1].content_store 	decision_ratio[1] 	0
scalar one_cache_scenario_3_links_network.node[2].core_layer 	interests[2] 	25166
scalar one_cache_scenario_3_links_network.node[2].core_layer 	data[2] 	25166
scalar one_cache_scenario_3_links_network.node[2].content_store 	p_hit[2] 	0
scalar one_cache_scenario_3_links_network.node[2].content_store 	hits[2] 	0
scalar one_cache_scenario_3_links_network.node[2].content_store 	misses[2] 	25166
scalar one_cache_scenario_3_links_network.node[2].content_store 	decision_yes[2] 	0
scalar one_cache_scenario_3_links_network.node[2].content_store 	decision_no[2] 	25166
scalar one_cache_scenario_3_links_network.node[2].content_store 	decision_ratio[2] 	0
scalar one_cache_scenario_3_links_network.node[3].core_layer 	interests[3] 	24624
scalar one_cache_scenario_3_links_network.node[3].core_layer 	data[3] 	24624
scalar one_cache_scenario_3_links_network.node[3].content_store 	p_hit[3] 	0
scalar one_cache_scenario_3_links_network.node[3].content_store 	hits[3] 	0
scalar one_cache_scenario_3_links_network.node[3].content_store 	misses[3] 	24624
scalar one_cache_scenario_3_links_network.node[3].content_store 	decision_yes[3] 	0
scalar one_cache_scenario_3_links_network.node[3].content_store 	decision_no[3] 	24624
scalar one_cache_scenario_3_links_network.node[3].content_store 	decision_ratio[3] 	0
scalar one_cache_scenario_3_links_network.node[4].core_layer 	interests[4] 	62869
scalar one_cache_scenario_3_links_network.node[4].core_layer 	repo_load[4] 	62869
scalar one_cache_scenario_3_links_network.node[4].core_layer 	data[4] 	0
scalar one_cache_scenario_3_links_network.node[4].content_store 	p_hit[4] 	0
scalar one_cache_scenario_3_links_network.node[4].content_store 	hits[4] 	0
scalar one_cache_scenario_3_links_network.node[4].content_store 	misses[4] 	62869
scalar one_cache_scenario_3_links_network.node[4].content_store 	decision_yes[4] 	0
scalar one_cache_scenario_3_links_network.node[4].content_store 	decision_no[4] 	62869
scalar one_cache_scenario_3_links_network.node[4].content_store 	decision_ratio[4] 	0
scalar one_cache_scenario_3_links_network.node[5].core_layer 	interests[5] 	25166
scalar one_cache_scenario_3_links_network.node[5].core_layer 	repo_load[5] 	25166
scalar one_cache_scenario_3_links_network.node[5].core_layer 	data[5] 	0
scalar one_cache_scenario_3_links_network.node[5].content_store 	p_hit[5] 	0
scalar one_cache_scenario_3_links_network.node[5].content_store 	hits[5] 	0
scalar one_cache_scenario_3_links_network.node[5].content_store 	misses[5] 	25166
scalar one_cache_scenario_3_links_network.node[5].content_store 	decision_yes[5] 	0
scalar one_cache_scenario_3_links_network.node[5].content_store 	decision_no[5] 	25166
scalar one_cache_scenario_3_links_network.node[5].content_store 	decision_ratio[5] 	0
scalar one_cache_scenario_3_links_network.node[6].core_layer 	interests[6] 	24624
scalar one_cache_scenario_3_links_network.node[6].core_layer 	repo_load[6] 	24624
scalar one_cache_scenario_3_links_network.node[6].core_layer 	data[6] 	0
scalar one_cache_scenario_3_links_network.node[6].content_store 	p_hit[6] 	0
scalar one_cache_scenario_3_links_network.node[6].content_store 	hits[6] 	0
scalar one_cache_scenario_3_links_network.node[6].content_store 	misses[6] 	24624
scalar one_cache_scenario_3_links_network.node[6].content_store 	decision_yes[6] 	0
scalar one_cache_scenario_3_links_network.node[6].content_store 	decision_no[6] 	24624
scalar one_cache_scenario_3_links_network.node[6].content_store 	decision_ratio[6] 	0
scalar one_cache_scenario_3_links_network.client[0] 	hdistance[0] 	1.254722234597
scalar one_cache_scenario_3_links_network.client[0] 	downloads[0] 	179576
scalar one_cache_scenario_3_links_network.client[0] 	avg_time[0] 	0
scalar one_cache_scenario_3_links_network.client[0] 	interests_sent[0] 	179576
