version 2
run General-0-20150722-13:15:17-32158
attr C 1e4
attr D lce
attr F spr
attr R lru_repr
attr a 1
attr brates 0.3_0.7_1.5_2.5_3.5
attr configname General
attr ctlg 1e6
attr datetime 20150722-13:15:17
attr experiment General
attr inifile omnetpp.ini
attr iterationvars "$net=barabasi_100nodes, $rep=1, $lambda=100, $a=1, $ctlg=1e6, $brates=0.3_0.7_1.5_2.5_3.5, $F=spr, $ttl=1000, $D=lce, $R=lru_repr, $C=1e4, $window=60, $variance=0.05, $mytime=180000"
attr iterationvars2 "$net=barabasi_100nodes, $rep=1, $lambda=100, $a=1, $ctlg=1e6, $brates=0.3_0.7_1.5_2.5_3.5, $F=spr, $ttl=1000, $D=lce, $R=lru_repr, $C=1e4, $window=60, $variance=0.05, $mytime=180000, $repetition=0"
attr lambda 100
attr measurement "$net=barabasi_100nodes, $rep=1, $lambda=100, $a=1, $ctlg=1e6, $brates=0.3_0.7_1.5_2.5_3.5, $F=spr, $ttl=1000, $D=lce, $R=lru_repr, $C=1e4, $window=60, $variance=0.05, $mytime=180000"
attr mytime 180000
attr net barabasi_100nodes
attr network networks.${net=barabasi_100nodes}_network
attr processid 32158
attr rep 1
attr repetition 0
attr replication #0
attr resultdir results
attr runnumber 0
attr seedset 1
attr ttl 1000
attr variance 0.05
attr window 60

scalar . 	C 	1e4
scalar . 	a 	1
scalar . 	ctlg 	1e6
scalar . 	lambda 	100
scalar . 	mytime 	180000
scalar . 	rep 	1
scalar . 	ttl 	1000
scalar . 	variance 	0.05
scalar . 	window 	60
scalar barabasi_100nodes_network.content_distribution 	repo-0 	46
scalar barabasi_100nodes_network.content_distribution 	repo-1 	55
scalar barabasi_100nodes_network.content_distribution 	repo-2 	69
scalar barabasi_100nodes_network.content_distribution 	repo-3 	1
scalar barabasi_100nodes_network.content_distribution 	repo-4 	87
scalar barabasi_100nodes_network.content_distribution 	repo-5 	72
scalar barabasi_100nodes_network.content_distribution 	repo-6 	50
scalar barabasi_100nodes_network.content_distribution 	repo-7 	9
scalar barabasi_100nodes_network.content_distribution 	repo-8 	58
scalar barabasi_100nodes_network.content_distribution 	repo-9 	94
scalar barabasi_100nodes_network.content_distribution 	repo-10 	57
scalar barabasi_100nodes_network.content_distribution 	repo-11 	36
scalar barabasi_100nodes_network.content_distribution 	repo-12 	44
scalar barabasi_100nodes_network.content_distribution 	repo-13 	38
scalar barabasi_100nodes_network.content_distribution 	repo-14 	52
scalar barabasi_100nodes_network.content_distribution 	repo-15 	3
scalar barabasi_100nodes_network.content_distribution 	repo-16 	0
scalar barabasi_100nodes_network.content_distribution 	repo-17 	21
scalar barabasi_100nodes_network.content_distribution 	repo-18 	73
scalar barabasi_100nodes_network.content_distribution 	repo-19 	56
scalar barabasi_100nodes_network.content_distribution 	repo-20 	66
scalar barabasi_100nodes_network.content_distribution 	repo-21 	30
scalar barabasi_100nodes_network.content_distribution 	repo-22 	8
scalar barabasi_100nodes_network.content_distribution 	repo-23 	49
scalar barabasi_100nodes_network.content_distribution 	repo-24 	32
scalar barabasi_100nodes_network.content_distribution 	repo-25 	40
scalar barabasi_100nodes_network.content_distribution 	repo-26 	42
scalar barabasi_100nodes_network.content_distribution 	repo-27 	45
scalar barabasi_100nodes_network.content_distribution 	repo-28 	33
scalar barabasi_100nodes_network.content_distribution 	repo-29 	28
scalar barabasi_100nodes_network.content_distribution 	repo-30 	79
scalar barabasi_100nodes_network.content_distribution 	repo-31 	98
scalar barabasi_100nodes_network.content_distribution 	repo-32 	95
scalar barabasi_100nodes_network.content_distribution 	repo-33 	17
scalar barabasi_100nodes_network.content_distribution 	repo-34 	81
scalar barabasi_100nodes_network.content_distribution 	repo-35 	89
scalar barabasi_100nodes_network.content_distribution 	repo-36 	59
scalar barabasi_100nodes_network.content_distribution 	repo-37 	48
scalar barabasi_100nodes_network.content_distribution 	repo-38 	76
scalar barabasi_100nodes_network.content_distribution 	repo-39 	23
scalar barabasi_100nodes_network.content_distribution 	repo-40 	22
scalar barabasi_100nodes_network.content_distribution 	repo-41 	67
scalar barabasi_100nodes_network.content_distribution 	repo-42 	62
scalar barabasi_100nodes_network.content_distribution 	repo-43 	75
scalar barabasi_100nodes_network.content_distribution 	repo-44 	70
scalar barabasi_100nodes_network.content_distribution 	repo-45 	71
scalar barabasi_100nodes_network.content_distribution 	repo-46 	82
scalar barabasi_100nodes_network.content_distribution 	repo-47 	53
scalar barabasi_100nodes_network.content_distribution 	repo-48 	85
scalar barabasi_100nodes_network.content_distribution 	repo-49 	91
scalar barabasi_100nodes_network.content_distribution 	repo-50 	51
scalar barabasi_100nodes_network.content_distribution 	repo-51 	37
scalar barabasi_100nodes_network.content_distribution 	repo-52 	54
scalar barabasi_100nodes_network.content_distribution 	repo-53 	96
scalar barabasi_100nodes_network.content_distribution 	repo-54 	4
scalar barabasi_100nodes_network.content_distribution 	repo-55 	31
scalar barabasi_100nodes_network.content_distribution 	repo-56 	78
scalar barabasi_100nodes_network.content_distribution 	repo-57 	68
scalar barabasi_100nodes_network.content_distribution 	repo-58 	39
scalar barabasi_100nodes_network.content_distribution 	repo-59 	27
scalar barabasi_100nodes_network.content_distribution 	repo-60 	97
scalar barabasi_100nodes_network.content_distribution 	repo-61 	60
scalar barabasi_100nodes_network.content_distribution 	repo-62 	43
scalar barabasi_100nodes_network.content_distribution 	repo-63 	86
scalar barabasi_100nodes_network.content_distribution 	repo-64 	15
scalar barabasi_100nodes_network.content_distribution 	repo-65 	13
scalar barabasi_100nodes_network.content_distribution 	repo-66 	10
scalar barabasi_100nodes_network.content_distribution 	repo-67 	7
scalar barabasi_100nodes_network.content_distribution 	repo-68 	63
scalar barabasi_100nodes_network.content_distribution 	repo-69 	64
scalar barabasi_100nodes_network.content_distribution 	repo-70 	35
scalar barabasi_100nodes_network.content_distribution 	repo-71 	65
scalar barabasi_100nodes_network.content_distribution 	repo-72 	74
scalar barabasi_100nodes_network.content_distribution 	repo-73 	20
scalar barabasi_100nodes_network.content_distribution 	repo-74 	80
scalar barabasi_100nodes_network.content_distribution 	repo-75 	41
scalar barabasi_100nodes_network.content_distribution 	repo-76 	25
scalar barabasi_100nodes_network.content_distribution 	repo-77 	5
scalar barabasi_100nodes_network.content_distribution 	repo-78 	24
scalar barabasi_100nodes_network.content_distribution 	repo-79 	29
scalar barabasi_100nodes_network.content_distribution 	repo-80 	93
scalar barabasi_100nodes_network.content_distribution 	repo-81 	61
scalar barabasi_100nodes_network.content_distribution 	repo-82 	2
scalar barabasi_100nodes_network.content_distribution 	repo-83 	19
scalar barabasi_100nodes_network.content_distribution 	repo-84 	99
scalar barabasi_100nodes_network.content_distribution 	repo-85 	16
scalar barabasi_100nodes_network.content_distribution 	repo-86 	90
scalar barabasi_100nodes_network.content_distribution 	repo-87 	77
scalar barabasi_100nodes_network.content_distribution 	repo-88 	12
scalar barabasi_100nodes_network.content_distribution 	repo-89 	26
scalar barabasi_100nodes_network.content_distribution 	repo-90 	34
scalar barabasi_100nodes_network.content_distribution 	repo-91 	88
scalar barabasi_100nodes_network.content_distribution 	repo-92 	18
scalar barabasi_100nodes_network.content_distribution 	repo-93 	83
scalar barabasi_100nodes_network.content_distribution 	repo-94 	84
scalar barabasi_100nodes_network.content_distribution 	repo-95 	92
scalar barabasi_100nodes_network.content_distribution 	repo-96 	14
scalar barabasi_100nodes_network.content_distribution 	repo-97 	6
scalar barabasi_100nodes_network.content_distribution 	repo-98 	47
scalar barabasi_100nodes_network.content_distribution 	repo-99 	11
scalar barabasi_100nodes_network.content_distribution 	client-0 	3
scalar barabasi_100nodes_network.content_distribution 	client-1 	71
scalar barabasi_100nodes_network.content_distribution 	client-2 	78
scalar barabasi_100nodes_network.content_distribution 	client-3 	12
scalar barabasi_100nodes_network.content_distribution 	client-4 	7
scalar barabasi_100nodes_network.content_distribution 	client-5 	81
scalar barabasi_100nodes_network.content_distribution 	client-6 	86
scalar barabasi_100nodes_network.content_distribution 	client-7 	80
scalar barabasi_100nodes_network.content_distribution 	client-8 	79
scalar barabasi_100nodes_network.content_distribution 	client-9 	64
scalar barabasi_100nodes_network.content_distribution 	client-10 	10
scalar barabasi_100nodes_network.content_distribution 	client-11 	31
scalar barabasi_100nodes_network.content_distribution 	client-12 	45
scalar barabasi_100nodes_network.content_distribution 	client-13 	39
scalar barabasi_100nodes_network.content_distribution 	client-14 	84
scalar barabasi_100nodes_network.content_distribution 	client-15 	95
scalar barabasi_100nodes_network.content_distribution 	client-16 	48
scalar barabasi_100nodes_network.content_distribution 	client-17 	29
scalar barabasi_100nodes_network.content_distribution 	client-18 	43
scalar barabasi_100nodes_network.content_distribution 	client-19 	0
scalar barabasi_100nodes_network.content_distribution 	client-20 	8
scalar barabasi_100nodes_network.content_distribution 	client-21 	57
scalar barabasi_100nodes_network.content_distribution 	client-22 	38
scalar barabasi_100nodes_network.content_distribution 	client-23 	90
scalar barabasi_100nodes_network.content_distribution 	client-24 	54
scalar barabasi_100nodes_network.content_distribution 	client-25 	24
scalar barabasi_100nodes_network.content_distribution 	client-26 	52
scalar barabasi_100nodes_network.content_distribution 	client-27 	67
scalar barabasi_100nodes_network.content_distribution 	client-28 	44
scalar barabasi_100nodes_network.content_distribution 	client-29 	82
scalar barabasi_100nodes_network.content_distribution 	client-30 	14
scalar barabasi_100nodes_network.content_distribution 	client-31 	49
scalar barabasi_100nodes_network.content_distribution 	client-32 	6
scalar barabasi_100nodes_network.content_distribution 	client-33 	91
scalar barabasi_100nodes_network.content_distribution 	client-34 	60
scalar barabasi_100nodes_network.content_distribution 	client-35 	75
scalar barabasi_100nodes_network.content_distribution 	client-36 	59
scalar barabasi_100nodes_network.content_distribution 	client-37 	32
scalar barabasi_100nodes_network.content_distribution 	client-38 	15
scalar barabasi_100nodes_network.content_distribution 	client-39 	85
scalar barabasi_100nodes_network.content_distribution 	client-40 	62
scalar barabasi_100nodes_network.content_distribution 	client-41 	16
scalar barabasi_100nodes_network.content_distribution 	client-42 	21
scalar barabasi_100nodes_network.content_distribution 	client-43 	70
scalar barabasi_100nodes_network.content_distribution 	client-44 	5
scalar barabasi_100nodes_network.content_distribution 	client-45 	65
scalar barabasi_100nodes_network.content_distribution 	client-46 	30
scalar barabasi_100nodes_network.content_distribution 	client-47 	35
scalar barabasi_100nodes_network.content_distribution 	client-48 	46
scalar barabasi_100nodes_network.content_distribution 	client-49 	55
scalar barabasi_100nodes_network.content_distribution 	client-50 	2
scalar barabasi_100nodes_network.content_distribution 	client-51 	88
scalar barabasi_100nodes_network.content_distribution 	client-52 	41
scalar barabasi_100nodes_network.content_distribution 	client-53 	93
scalar barabasi_100nodes_network.content_distribution 	client-54 	69
scalar barabasi_100nodes_network.content_distribution 	client-55 	94
scalar barabasi_100nodes_network.content_distribution 	client-56 	56
scalar barabasi_100nodes_network.content_distribution 	client-57 	11
scalar barabasi_100nodes_network.content_distribution 	client-58 	22
scalar barabasi_100nodes_network.content_distribution 	client-59 	68
scalar barabasi_100nodes_network.content_distribution 	client-60 	97
scalar barabasi_100nodes_network.content_distribution 	client-61 	37
scalar barabasi_100nodes_network.content_distribution 	client-62 	9
scalar barabasi_100nodes_network.content_distribution 	client-63 	28
scalar barabasi_100nodes_network.content_distribution 	client-64 	83
scalar barabasi_100nodes_network.content_distribution 	client-65 	50
scalar barabasi_100nodes_network.content_distribution 	client-66 	61
scalar barabasi_100nodes_network.content_distribution 	client-67 	26
scalar barabasi_100nodes_network.content_distribution 	client-68 	53
scalar barabasi_100nodes_network.content_distribution 	client-69 	1
scalar barabasi_100nodes_network.content_distribution 	client-70 	73
scalar barabasi_100nodes_network.content_distribution 	client-71 	92
scalar barabasi_100nodes_network.content_distribution 	client-72 	72
scalar barabasi_100nodes_network.content_distribution 	client-73 	40
scalar barabasi_100nodes_network.content_distribution 	client-74 	87
scalar barabasi_100nodes_network.content_distribution 	client-75 	66
scalar barabasi_100nodes_network.content_distribution 	client-76 	42
scalar barabasi_100nodes_network.content_distribution 	client-77 	89
scalar barabasi_100nodes_network.content_distribution 	client-78 	96
scalar barabasi_100nodes_network.content_distribution 	client-79 	47
scalar barabasi_100nodes_network.content_distribution 	client-80 	18
scalar barabasi_100nodes_network.content_distribution 	client-81 	33
scalar barabasi_100nodes_network.content_distribution 	client-82 	17
scalar barabasi_100nodes_network.content_distribution 	client-83 	51
scalar barabasi_100nodes_network.content_distribution 	client-84 	34
scalar barabasi_100nodes_network.content_distribution 	client-85 	4
scalar barabasi_100nodes_network.content_distribution 	client-86 	76
scalar barabasi_100nodes_network.content_distribution 	client-87 	13
scalar barabasi_100nodes_network.content_distribution 	client-88 	36
scalar barabasi_100nodes_network.content_distribution 	client-89 	58
scalar barabasi_100nodes_network.content_distribution 	client-90 	74
scalar barabasi_100nodes_network.content_distribution 	client-91 	23
scalar barabasi_100nodes_network.content_distribution 	client-92 	25
scalar barabasi_100nodes_network.content_distribution 	client-93 	77
scalar barabasi_100nodes_network.content_distribution 	client-94 	98
scalar barabasi_100nodes_network.content_distribution 	client-95 	27
scalar barabasi_100nodes_network.content_distribution 	client-96 	99
scalar barabasi_100nodes_network.content_distribution 	client-97 	19
scalar barabasi_100nodes_network.content_distribution 	client-98 	20
scalar barabasi_100nodes_network.content_distribution 	client-99 	63
scalar barabasi_100nodes_network.content_distribution 	repo-0_card 	249719
scalar barabasi_100nodes_network.content_distribution 	repo-0_price 	0
scalar barabasi_100nodes_network.content_distribution 	repo-1_card 	249423
scalar barabasi_100nodes_network.content_distribution 	repo-1_price 	0
scalar barabasi_100nodes_network.content_distribution 	repo-2_card 	249931
scalar barabasi_100nodes_network.content_distribution 	repo-2_price 	0
scalar barabasi_100nodes_network.content_distribution 	repo-3_card 	250927
scalar barabasi_100nodes_network.content_distribution 	repo-3_price 	0
scalar barabasi_100nodes_network.content_distribution 	repo-4_card 	0
scalar barabasi_100nodes_network.content_distribution 	repo-4_price 	0
scalar barabasi_100nodes_network.content_distribution 	repo-5_card 	0
scalar barabasi_100nodes_network.content_distribution 	repo-5_price 	0
scalar barabasi_100nodes_network.content_distribution 	repo-6_card 	0
scalar barabasi_100nodes_network.content_distribution 	repo-6_price 	0
scalar barabasi_100nodes_network.content_distribution 	repo-7_card 	0
scalar barabasi_100nodes_network.content_distribution 	repo-7_price 	0
scalar barabasi_100nodes_network.content_distribution 	repo-8_card 	0
scalar barabasi_100nodes_network.content_distribution 	repo-8_price 	0
scalar barabasi_100nodes_network.content_distribution 	repo-9_card 	0
scalar barabasi_100nodes_network.content_distribution 	repo-9_price 	0
scalar barabasi_100nodes_network.content_distribution 	repo-10_card 	0
scalar barabasi_100nodes_network.content_distribution 	repo-10_price 	0
scalar barabasi_100nodes_network.content_distribution 	repo-11_card 	0
scalar barabasi_100nodes_network.content_distribution 	repo-11_price 	0
scalar barabasi_100nodes_network.content_distribution 	repo-12_card 	0
scalar barabasi_100nodes_network.content_distribution 	repo-12_price 	0
scalar barabasi_100nodes_network.content_distribution 	repo-13_card 	0
scalar barabasi_100nodes_network.content_distribution 	repo-13_price 	0
scalar barabasi_100nodes_network.content_distribution 	repo-14_card 	0
scalar barabasi_100nodes_network.content_distribution 	repo-14_price 	0
scalar barabasi_100nodes_network.content_distribution 	repo-15_card 	0
scalar barabasi_100nodes_network.content_distribution 	repo-15_price 	0
scalar barabasi_100nodes_network.content_distribution 	repo-16_card 	0
scalar barabasi_100nodes_network.content_distribution 	repo-16_price 	0
scalar barabasi_100nodes_network.content_distribution 	repo-17_card 	0
scalar barabasi_100nodes_network.content_distribution 	repo-17_price 	0
scalar barabasi_100nodes_network.content_distribution 	repo-18_card 	0
scalar barabasi_100nodes_network.content_distribution 	repo-18_price 	0
scalar barabasi_100nodes_network.content_distribution 	repo-19_card 	0
scalar barabasi_100nodes_network.content_distribution 	repo-19_price 	0
scalar barabasi_100nodes_network.content_distribution 	repo-20_card 	0
scalar barabasi_100nodes_network.content_distribution 	repo-20_price 	0
scalar barabasi_100nodes_network.content_distribution 	repo-21_card 	0
scalar barabasi_100nodes_network.content_distribution 	repo-21_price 	0
scalar barabasi_100nodes_network.content_distribution 	repo-22_card 	0
scalar barabasi_100nodes_network.content_distribution 	repo-22_price 	0
scalar barabasi_100nodes_network.content_distribution 	repo-23_card 	0
scalar barabasi_100nodes_network.content_distribution 	repo-23_price 	0
scalar barabasi_100nodes_network.content_distribution 	repo-24_card 	0
scalar barabasi_100nodes_network.content_distribution 	repo-24_price 	0
scalar barabasi_100nodes_network.content_distribution 	repo-25_card 	0
scalar barabasi_100nodes_network.content_distribution 	repo-25_price 	0
scalar barabasi_100nodes_network.content_distribution 	repo-26_card 	0
scalar barabasi_100nodes_network.content_distribution 	repo-26_price 	0
scalar barabasi_100nodes_network.content_distribution 	repo-27_card 	0
scalar barabasi_100nodes_network.content_distribution 	repo-27_price 	0
scalar barabasi_100nodes_network.content_distribution 	repo-28_card 	0
scalar barabasi_100nodes_network.content_distribution 	repo-28_price 	0
scalar barabasi_100nodes_network.content_distribution 	repo-29_card 	0
scalar barabasi_100nodes_network.content_distribution 	repo-29_price 	0
scalar barabasi_100nodes_network.content_distribution 	repo-30_card 	0
scalar barabasi_100nodes_network.content_distribution 	repo-30_price 	0
scalar barabasi_100nodes_network.content_distribution 	repo-31_card 	0
scalar barabasi_100nodes_network.content_distribution 	repo-31_price 	0
scalar barabasi_100nodes_network.content_distribution 	repo-32_card 	0
scalar barabasi_100nodes_network.content_distribution 	repo-32_price 	0
scalar barabasi_100nodes_network.content_distribution 	repo-33_card 	0
scalar barabasi_100nodes_network.content_distribution 	repo-33_price 	0
scalar barabasi_100nodes_network.content_distribution 	repo-34_card 	0
scalar barabasi_100nodes_network.content_distribution 	repo-34_price 	0
scalar barabasi_100nodes_network.content_distribution 	repo-35_card 	0
scalar barabasi_100nodes_network.content_distribution 	repo-35_price 	0
scalar barabasi_100nodes_network.content_distribution 	repo-36_card 	0
scalar barabasi_100nodes_network.content_distribution 	repo-36_price 	0
scalar barabasi_100nodes_network.content_distribution 	repo-37_card 	0
scalar barabasi_100nodes_network.content_distribution 	repo-37_price 	0
scalar barabasi_100nodes_network.content_distribution 	repo-38_card 	0
scalar barabasi_100nodes_network.content_distribution 	repo-38_price 	0
scalar barabasi_100nodes_network.content_distribution 	repo-39_card 	0
scalar barabasi_100nodes_network.content_distribution 	repo-39_price 	0
scalar barabasi_100nodes_network.content_distribution 	repo-40_card 	0
scalar barabasi_100nodes_network.content_distribution 	repo-40_price 	0
scalar barabasi_100nodes_network.content_distribution 	repo-41_card 	0
scalar barabasi_100nodes_network.content_distribution 	repo-41_price 	0
scalar barabasi_100nodes_network.content_distribution 	repo-42_card 	0
scalar barabasi_100nodes_network.content_distribution 	repo-42_price 	0
scalar barabasi_100nodes_network.content_distribution 	repo-43_card 	0
scalar barabasi_100nodes_network.content_distribution 	repo-43_price 	0
scalar barabasi_100nodes_network.content_distribution 	repo-44_card 	0
scalar barabasi_100nodes_network.content_distribution 	repo-44_price 	0
scalar barabasi_100nodes_network.content_distribution 	repo-45_card 	0
scalar barabasi_100nodes_network.content_distribution 	repo-45_price 	0
scalar barabasi_100nodes_network.content_distribution 	repo-46_card 	0
scalar barabasi_100nodes_network.content_distribution 	repo-46_price 	0
scalar barabasi_100nodes_network.content_distribution 	repo-47_card 	0
scalar barabasi_100nodes_network.content_distribution 	repo-47_price 	0
scalar barabasi_100nodes_network.content_distribution 	repo-48_card 	0
scalar barabasi_100nodes_network.content_distribution 	repo-48_price 	0
scalar barabasi_100nodes_network.content_distribution 	repo-49_card 	0
scalar barabasi_100nodes_network.content_distribution 	repo-49_price 	0
scalar barabasi_100nodes_network.content_distribution 	repo-50_card 	0
scalar barabasi_100nodes_network.content_distribution 	repo-50_price 	0
scalar barabasi_100nodes_network.content_distribution 	repo-51_card 	0
scalar barabasi_100nodes_network.content_distribution 	repo-51_price 	0
scalar barabasi_100nodes_network.content_distribution 	repo-52_card 	0
scalar barabasi_100nodes_network.content_distribution 	repo-52_price 	0
scalar barabasi_100nodes_network.content_distribution 	repo-53_card 	0
scalar barabasi_100nodes_network.content_distribution 	repo-53_price 	0
scalar barabasi_100nodes_network.content_distribution 	repo-54_card 	0
scalar barabasi_100nodes_network.content_distribution 	repo-54_price 	0
scalar barabasi_100nodes_network.content_distribution 	repo-55_card 	0
scalar barabasi_100nodes_network.content_distribution 	repo-55_price 	0
scalar barabasi_100nodes_network.content_distribution 	repo-56_card 	0
scalar barabasi_100nodes_network.content_distribution 	repo-56_price 	0
scalar barabasi_100nodes_network.content_distribution 	repo-57_card 	0
scalar barabasi_100nodes_network.content_distribution 	repo-57_price 	0
scalar barabasi_100nodes_network.content_distribution 	repo-58_card 	0
scalar barabasi_100nodes_network.content_distribution 	repo-58_price 	0
scalar barabasi_100nodes_network.content_distribution 	repo-59_card 	0
scalar barabasi_100nodes_network.content_distribution 	repo-59_price 	0
scalar barabasi_100nodes_network.content_distribution 	repo-60_card 	0
scalar barabasi_100nodes_network.content_distribution 	repo-60_price 	0
scalar barabasi_100nodes_network.content_distribution 	repo-61_card 	0
scalar barabasi_100nodes_network.content_distribution 	repo-61_price 	0
scalar barabasi_100nodes_network.content_distribution 	repo-62_card 	0
scalar barabasi_100nodes_network.content_distribution 	repo-62_price 	0
scalar barabasi_100nodes_network.content_distribution 	repo-63_card 	0
scalar barabasi_100nodes_network.content_distribution 	repo-63_price 	0
scalar barabasi_100nodes_network.content_distribution 	repo-64_card 	0
scalar barabasi_100nodes_network.content_distribution 	repo-64_price 	0
scalar barabasi_100nodes_network.content_distribution 	repo-65_card 	0
scalar barabasi_100nodes_network.content_distribution 	repo-65_price 	0
scalar barabasi_100nodes_network.content_distribution 	repo-66_card 	0
scalar barabasi_100nodes_network.content_distribution 	repo-66_price 	0
scalar barabasi_100nodes_network.content_distribution 	repo-67_card 	0
scalar barabasi_100nodes_network.content_distribution 	repo-67_price 	0
scalar barabasi_100nodes_network.content_distribution 	repo-68_card 	0
scalar barabasi_100nodes_network.content_distribution 	repo-68_price 	0
scalar barabasi_100nodes_network.content_distribution 	repo-69_card 	0
scalar barabasi_100nodes_network.content_distribution 	repo-69_price 	0
scalar barabasi_100nodes_network.content_distribution 	repo-70_card 	0
scalar barabasi_100nodes_network.content_distribution 	repo-70_price 	0
scalar barabasi_100nodes_network.content_distribution 	repo-71_card 	0
scalar barabasi_100nodes_network.content_distribution 	repo-71_price 	0
scalar barabasi_100nodes_network.content_distribution 	repo-72_card 	0
scalar barabasi_100nodes_network.content_distribution 	repo-72_price 	0
scalar barabasi_100nodes_network.content_distribution 	repo-73_card 	0
scalar barabasi_100nodes_network.content_distribution 	repo-73_price 	0
scalar barabasi_100nodes_network.content_distribution 	repo-74_card 	0
scalar barabasi_100nodes_network.content_distribution 	repo-74_price 	0
scalar barabasi_100nodes_network.content_distribution 	repo-75_card 	0
scalar barabasi_100nodes_network.content_distribution 	repo-75_price 	0
scalar barabasi_100nodes_network.content_distribution 	repo-76_card 	0
scalar barabasi_100nodes_network.content_distribution 	repo-76_price 	0
scalar barabasi_100nodes_network.content_distribution 	repo-77_card 	0
scalar barabasi_100nodes_network.content_distribution 	repo-77_price 	0
scalar barabasi_100nodes_network.content_distribution 	repo-78_card 	0
scalar barabasi_100nodes_network.content_distribution 	repo-78_price 	0
scalar barabasi_100nodes_network.content_distribution 	repo-79_card 	0
scalar barabasi_100nodes_network.content_distribution 	repo-79_price 	0
scalar barabasi_100nodes_network.content_distribution 	repo-80_card 	0
scalar barabasi_100nodes_network.content_distribution 	repo-80_price 	0
scalar barabasi_100nodes_network.content_distribution 	repo-81_card 	0
scalar barabasi_100nodes_network.content_distribution 	repo-81_price 	0
scalar barabasi_100nodes_network.content_distribution 	repo-82_card 	0
scalar barabasi_100nodes_network.content_distribution 	repo-82_price 	0
scalar barabasi_100nodes_network.content_distribution 	repo-83_card 	0
scalar barabasi_100nodes_network.content_distribution 	repo-83_price 	0
scalar barabasi_100nodes_network.content_distribution 	repo-84_card 	0
scalar barabasi_100nodes_network.content_distribution 	repo-84_price 	0
scalar barabasi_100nodes_network.content_distribution 	repo-85_card 	0
scalar barabasi_100nodes_network.content_distribution 	repo-85_price 	0
scalar barabasi_100nodes_network.content_distribution 	repo-86_card 	0
scalar barabasi_100nodes_network.content_distribution 	repo-86_price 	0
scalar barabasi_100nodes_network.content_distribution 	repo-87_card 	0
scalar barabasi_100nodes_network.content_distribution 	repo-87_price 	0
scalar barabasi_100nodes_network.content_distribution 	repo-88_card 	0
scalar barabasi_100nodes_network.content_distribution 	repo-88_price 	0
scalar barabasi_100nodes_network.content_distribution 	repo-89_card 	0
scalar barabasi_100nodes_network.content_distribution 	repo-89_price 	0
scalar barabasi_100nodes_network.content_distribution 	repo-90_card 	0
scalar barabasi_100nodes_network.content_distribution 	repo-90_price 	0
scalar barabasi_100nodes_network.content_distribution 	repo-91_card 	0
scalar barabasi_100nodes_network.content_distribution 	repo-91_price 	0
scalar barabasi_100nodes_network.content_distribution 	repo-92_card 	0
scalar barabasi_100nodes_network.content_distribution 	repo-92_price 	0
scalar barabasi_100nodes_network.content_distribution 	repo-93_card 	0
scalar barabasi_100nodes_network.content_distribution 	repo-93_price 	0
scalar barabasi_100nodes_network.content_distribution 	repo-94_card 	0
scalar barabasi_100nodes_network.content_distribution 	repo-94_price 	0
scalar barabasi_100nodes_network.content_distribution 	repo-95_card 	0
scalar barabasi_100nodes_network.content_distribution 	repo-95_price 	0
scalar barabasi_100nodes_network.content_distribution 	repo-96_card 	0
scalar barabasi_100nodes_network.content_distribution 	repo-96_price 	0
scalar barabasi_100nodes_network.content_distribution 	repo-97_card 	0
scalar barabasi_100nodes_network.content_distribution 	repo-97_price 	0
scalar barabasi_100nodes_network.content_distribution 	repo-98_card 	0
scalar barabasi_100nodes_network.content_distribution 	repo-98_price 	0
scalar barabasi_100nodes_network.content_distribution 	repo-99_card 	0
scalar barabasi_100nodes_network.content_distribution 	repo-99_price 	0
scalar barabasi_100nodes_network.statistics 	p_hit 	0.3051749441
scalar barabasi_100nodes_network.statistics 	interests 	244709.31
scalar barabasi_100nodes_network.statistics 	data 	134214.34
scalar barabasi_100nodes_network.statistics 	hdistance 	1.3540641991221
scalar barabasi_100nodes_network.statistics 	avg_time 	0
scalar barabasi_100nodes_network.statistics 	downloads 	9278347
scalar barabasi_100nodes_network.statistics 	total_cost 	0
scalar barabasi_100nodes_network.statistics 	total_replicas 	1000000
scalar barabasi_100nodes_network.statistics 	"representations_downloaded 0.338811:0.033347:0.0235386:0.0213002:0.583003:" 	0
scalar barabasi_100nodes_network.statistics 	"slots_per_representation 100:233:500:833:1167:" 	0
scalar barabasi_100nodes_network.statistics 	inner_hit 	0.6139850126321
scalar barabasi_100nodes_network.statistics 	execution_time 	495
scalar barabasi_100nodes_network.node[0].core_layer 	interests[0] 	1694785
scalar barabasi_100nodes_network.node[0].core_layer 	data[0] 	1326651
scalar barabasi_100nodes_network.node[0].core_layer 	slots_sent[face$o[1]->client[0]] 	64438441
scalar barabasi_100nodes_network.node[0].core_layer 	slots_sent[face$o[2]->node[1]] 	9992493
scalar barabasi_100nodes_network.node[0].core_layer 	slots_sent[face$o[3]->node[2]] 	148444384
scalar barabasi_100nodes_network.node[0].core_layer 	slots_sent[face$o[4]->node[5]] 	45693911
scalar barabasi_100nodes_network.node[0].core_layer 	slots_sent[face$o[5]->node[10]] 	17690298
scalar barabasi_100nodes_network.node[0].core_layer 	slots_sent[face$o[6]->node[11]] 	10059794
scalar barabasi_100nodes_network.node[0].core_layer 	slots_sent[face$o[7]->node[15]] 	24155158
scalar barabasi_100nodes_network.node[0].core_layer 	slots_sent[face$o[8]->node[21]] 	35416838
scalar barabasi_100nodes_network.node[0].core_layer 	slots_sent[face$o[9]->node[22]] 	13291771
scalar barabasi_100nodes_network.node[0].core_layer 	slots_sent[face$o[10]->node[28]] 	13186315
scalar barabasi_100nodes_network.node[0].core_layer 	slots_sent[face$o[11]->node[37]] 	13178340
scalar barabasi_100nodes_network.node[0].core_layer 	slots_sent[face$o[12]->node[44]] 	13365982
scalar barabasi_100nodes_network.node[0].core_layer 	slots_sent[face$o[13]->node[58]] 	24708206
scalar barabasi_100nodes_network.node[0].core_layer 	slots_sent[face$o[14]->node[73]] 	24777412
scalar barabasi_100nodes_network.node[0].core_layer 	slots_sent[face$o[15]->node[74]] 	13444724
scalar barabasi_100nodes_network.node[0].core_layer 	slots_sent[face$o[16]->node[93]] 	13270841
scalar barabasi_100nodes_network.node[0].content_store 	p_hit[0] 	0.21721575303062
scalar barabasi_100nodes_network.node[0].content_store 	hits[0] 	368134
scalar barabasi_100nodes_network.node[0].content_store 	misses[0] 	1326651
scalar barabasi_100nodes_network.node[0].content_store 	decision_yes[0] 	1326651
scalar barabasi_100nodes_network.node[0].content_store 	decision_no[0] 	0
scalar barabasi_100nodes_network.node[0].content_store 	decision_ratio[0] 	1
scalar barabasi_100nodes_network.node[0].content_store 	"representation_breakdown[0] 28112:5641:2568:1839:4051:" 	0
scalar barabasi_100nodes_network.node[0].proactive_component 	hdistance[0].proactive_component 	2.1165028073794
scalar barabasi_100nodes_network.node[0].proactive_component 	downloads[0].proactive_component 	218175
scalar barabasi_100nodes_network.node[0].proactive_component 	avg_time[0].proactive_component 	0
scalar barabasi_100nodes_network.node[1].core_layer 	interests[1] 	792963
scalar barabasi_100nodes_network.node[1].core_layer 	repo_load[1] 	724389
scalar barabasi_100nodes_network.node[1].core_layer 	data[1] 	30074
scalar barabasi_100nodes_network.node[1].core_layer 	slots_sent[face$o[1]->client[1]] 	51902218
scalar barabasi_100nodes_network.node[1].core_layer 	slots_sent[face$o[2]->node[0]] 	183673869
scalar barabasi_100nodes_network.node[1].content_store 	p_hit[1] 	0.048552076200277
scalar barabasi_100nodes_network.node[1].content_store 	hits[1] 	38500
scalar barabasi_100nodes_network.node[1].content_store 	misses[1] 	754463
scalar barabasi_100nodes_network.node[1].content_store 	decision_yes[1] 	30074
scalar barabasi_100nodes_network.node[1].content_store 	decision_no[1] 	724389
scalar barabasi_100nodes_network.node[1].content_store 	decision_ratio[1] 	0.0398614643793
scalar barabasi_100nodes_network.node[1].content_store 	"representation_breakdown[1] 17994:2001:1018:952:4542:" 	0
scalar barabasi_100nodes_network.node[1].proactive_component 	hdistance[1].proactive_component 	3.080740117746
scalar barabasi_100nodes_network.node[1].proactive_component 	downloads[1].proactive_component 	3567
scalar barabasi_100nodes_network.node[1].proactive_component 	avg_time[1].proactive_component 	0
scalar barabasi_100nodes_network.node[2].core_layer 	interests[2] 	3386838
scalar barabasi_100nodes_network.node[2].core_layer 	data[2] 	2732920
scalar barabasi_100nodes_network.node[2].core_layer 	slots_sent[face$o[1]->client[2]] 	64371938
scalar barabasi_100nodes_network.node[2].core_layer 	slots_sent[face$o[2]->node[0]] 	185134920
scalar barabasi_100nodes_network.node[2].core_layer 	slots_sent[face$o[3]->node[3]] 	24731434
scalar barabasi_100nodes_network.node[2].core_layer 	slots_sent[face$o[4]->node[4]] 	65961234
scalar barabasi_100nodes_network.node[2].core_layer 	slots_sent[face$o[5]->node[6]] 	10095415
scalar barabasi_100nodes_network.node[2].core_layer 	slots_sent[face$o[6]->node[7]] 	73222067
scalar barabasi_100nodes_network.node[2].core_layer 	slots_sent[face$o[7]->node[8]] 	81778383
scalar barabasi_100nodes_network.node[2].core_layer 	slots_sent[face$o[8]->node[13]] 	37807106
scalar barabasi_100nodes_network.node[2].core_layer 	slots_sent[face$o[9]->node[16]] 	73652641
scalar barabasi_100nodes_network.node[2].core_layer 	slots_sent[face$o[10]->node[18]] 	46333147
scalar barabasi_100nodes_network.node[2].core_layer 	slots_sent[face$o[11]->node[25]] 	24772457
scalar barabasi_100nodes_network.node[2].core_layer 	slots_sent[face$o[12]->node[26]] 	45574593
scalar barabasi_100nodes_network.node[2].core_layer 	slots_sent[face$o[13]->node[29]] 	13424336
scalar barabasi_100nodes_network.node[2].core_layer 	slots_sent[face$o[14]->node[32]] 	35459707
scalar barabasi_100nodes_network.node[2].core_layer 	slots_sent[face$o[15]->node[33]] 	13416049
scalar barabasi_100nodes_network.node[2].core_layer 	slots_sent[face$o[16]->node[34]] 	13469782
scalar barabasi_100nodes_network.node[2].core_layer 	slots_sent[face$o[17]->node[36]] 	24681308
scalar barabasi_100nodes_network.node[2].core_layer 	slots_sent[face$o[18]->node[41]] 	49232427
scalar barabasi_100nodes_network.node[2].core_layer 	slots_sent[face$o[19]->node[45]] 	13506591
scalar barabasi_100nodes_network.node[2].core_layer 	slots_sent[face$o[20]->node[59]] 	13375805
scalar barabasi_100nodes_network.node[2].core_layer 	slots_sent[face$o[21]->node[62]] 	35681293
scalar barabasi_100nodes_network.node[2].core_layer 	slots_sent[face$o[22]->node[79]] 	13445990
scalar barabasi_100nodes_network.node[2].content_store 	p_hit[2] 	0.19307625578785
scalar barabasi_100nodes_network.node[2].content_store 	hits[2] 	653918
scalar barabasi_100nodes_network.node[2].content_store 	misses[2] 	2732920
scalar barabasi_100nodes_network.node[2].content_store 	decision_yes[2] 	2732920
scalar barabasi_100nodes_network.node[2].content_store 	decision_no[2] 	0
scalar barabasi_100nodes_network.node[2].content_store 	decision_ratio[2] 	1
scalar barabasi_100nodes_network.node[2].content_store 	"representation_breakdown[2] 27440:5631:2616:1965:4000:" 	0
scalar barabasi_100nodes_network.node[2].proactive_component 	hdistance[2].proactive_component 	2.4831169024906
scalar barabasi_100nodes_network.node[2].proactive_component 	downloads[2].proactive_component 	402207
scalar barabasi_100nodes_network.node[2].proactive_component 	avg_time[2].proactive_component 	0
scalar barabasi_100nodes_network.node[3].core_layer 	interests[3] 	141837
scalar barabasi_100nodes_network.node[3].core_layer 	data[3] 	76928
scalar barabasi_100nodes_network.node[3].core_layer 	slots_sent[face$o[1]->client[3]] 	73042522
scalar barabasi_100nodes_network.node[3].core_layer 	slots_sent[face$o[2]->node[2]] 	0
scalar barabasi_100nodes_network.node[3].core_layer 	slots_sent[face$o[3]->node[52]] 	13426739
scalar barabasi_100nodes_network.node[3].content_store 	p_hit[3] 	0.45763094256083
scalar barabasi_100nodes_network.node[3].content_store 	hits[3] 	64909
scalar barabasi_100nodes_network.node[3].content_store 	misses[3] 	76928
scalar barabasi_100nodes_network.node[3].content_store 	decision_yes[3] 	76928
scalar barabasi_100nodes_network.node[3].content_store 	decision_no[3] 	0
scalar barabasi_100nodes_network.node[3].content_store 	decision_ratio[3] 	1
scalar barabasi_100nodes_network.node[3].content_store 	"representation_breakdown[3] 25182:3535:1718:1400:5400:" 	0
scalar barabasi_100nodes_network.node[3].proactive_component 	hdistance[3].proactive_component 	2.7520540236353
scalar barabasi_100nodes_network.node[3].proactive_component 	downloads[3].proactive_component 	8885
scalar barabasi_100nodes_network.node[3].proactive_component 	avg_time[3].proactive_component 	0
scalar barabasi_100nodes_network.node[4].core_layer 	interests[4] 	310091
scalar barabasi_100nodes_network.node[4].core_layer 	data[4] 	215962
scalar barabasi_100nodes_network.node[4].core_layer 	slots_sent[face$o[1]->client[4]] 	71421384
scalar barabasi_100nodes_network.node[4].core_layer 	slots_sent[face$o[2]->node[2]] 	0
scalar barabasi_100nodes_network.node[4].core_layer 	slots_sent[face$o[3]->node[27]] 	24878268
scalar barabasi_100nodes_network.node[4].core_layer 	slots_sent[face$o[4]->node[30]] 	24975223
scalar barabasi_100nodes_network.node[4].core_layer 	slots_sent[face$o[5]->node[85]] 	13555986
scalar barabasi_100nodes_network.node[4].content_store 	p_hit[4] 	0.3035528280408
scalar barabasi_100nodes_network.node[4].content_store 	hits[4] 	94129
scalar barabasi_100nodes_network.node[4].content_store 	misses[4] 	215962
scalar barabasi_100nodes_network.node[4].content_store 	decision_yes[4] 	215962
scalar barabasi_100nodes_network.node[4].content_store 	decision_no[4] 	0
scalar barabasi_100nodes_network.node[4].content_store 	decision_ratio[4] 	1
scalar barabasi_100nodes_network.node[4].content_store 	"representation_breakdown[4] 25479:4248:1954:1603:4987:" 	0
scalar barabasi_100nodes_network.node[4].proactive_component 	hdistance[4].proactive_component 	2.7739205983455
scalar barabasi_100nodes_network.node[4].proactive_component 	downloads[4].proactive_component 	26473
scalar barabasi_100nodes_network.node[4].proactive_component 	avg_time[4].proactive_component 	0
scalar barabasi_100nodes_network.node[5].core_layer 	interests[5] 	225577
scalar barabasi_100nodes_network.node[5].core_layer 	data[5] 	147260
scalar barabasi_100nodes_network.node[5].core_layer 	slots_sent[face$o[1]->client[5]] 	71794413
scalar barabasi_100nodes_network.node[5].core_layer 	slots_sent[face$o[2]->node[0]] 	0
scalar barabasi_100nodes_network.node[5].core_layer 	slots_sent[face$o[3]->node[9]] 	13518001
scalar barabasi_100nodes_network.node[5].core_layer 	slots_sent[face$o[4]->node[35]] 	24732232
scalar barabasi_100nodes_network.node[5].content_store 	p_hit[5] 	0.34718521835116
scalar barabasi_100nodes_network.node[5].content_store 	hits[5] 	78317
scalar barabasi_100nodes_network.node[5].content_store 	misses[5] 	147260
scalar barabasi_100nodes_network.node[5].content_store 	decision_yes[5] 	147260
scalar barabasi_100nodes_network.node[5].content_store 	decision_no[5] 	0
scalar barabasi_100nodes_network.node[5].content_store 	decision_ratio[5] 	1
scalar barabasi_100nodes_network.node[5].content_store 	"representation_breakdown[5] 25377:3848:1813:1607:5133:" 	0
scalar barabasi_100nodes_network.node[5].proactive_component 	hdistance[5].proactive_component 	3.0203432930706
scalar barabasi_100nodes_network.node[5].proactive_component 	downloads[5].proactive_component 	17303
scalar barabasi_100nodes_network.node[5].proactive_component 	avg_time[5].proactive_component 	0
scalar barabasi_100nodes_network.node[6].core_layer 	interests[6] 	96022
scalar barabasi_100nodes_network.node[6].core_layer 	repo_load[6] 	21043
scalar barabasi_100nodes_network.node[6].core_layer 	data[6] 	29625
scalar barabasi_100nodes_network.node[6].core_layer 	slots_sent[face$o[1]->client[6]] 	59511470
scalar barabasi_100nodes_network.node[6].core_layer 	slots_sent[face$o[2]->node[2]] 	0
scalar barabasi_100nodes_network.node[6].content_store 	p_hit[6] 	0.4723292578784
scalar barabasi_100nodes_network.node[6].content_store 	hits[6] 	45354
scalar barabasi_100nodes_network.node[6].content_store 	misses[6] 	50668
scalar barabasi_100nodes_network.node[6].content_store 	decision_yes[6] 	29625
scalar barabasi_100nodes_network.node[6].content_store 	decision_no[6] 	21043
scalar barabasi_100nodes_network.node[6].content_store 	decision_ratio[6] 	0.58468856082735
scalar barabasi_100nodes_network.node[6].content_store 	"representation_breakdown[6] 17516:1947:1082:887:4692:" 	0
scalar barabasi_100nodes_network.node[6].proactive_component 	hdistance[6].proactive_component 	2.683518994573
scalar barabasi_100nodes_network.node[6].proactive_component 	downloads[6].proactive_component 	3501
scalar barabasi_100nodes_network.node[6].proactive_component 	avg_time[6].proactive_component 	0
scalar barabasi_100nodes_network.node[7].core_layer 	interests[7] 	1383123
scalar barabasi_100nodes_network.node[7].core_layer 	repo_load[7] 	172653
scalar barabasi_100nodes_network.node[7].core_layer 	data[7] 	937545
scalar barabasi_100nodes_network.node[7].core_layer 	slots_sent[face$o[1]->client[7]] 	48733472
scalar barabasi_100nodes_network.node[7].core_layer 	slots_sent[face$o[2]->node[2]] 	209130098
scalar barabasi_100nodes_network.node[7].core_layer 	slots_sent[face$o[3]->node[23]] 	57103408
scalar barabasi_100nodes_network.node[7].core_layer 	slots_sent[face$o[4]->node[31]] 	41530660
scalar barabasi_100nodes_network.node[7].core_layer 	slots_sent[face$o[5]->node[49]] 	12600536
scalar barabasi_100nodes_network.node[7].core_layer 	slots_sent[face$o[6]->node[90]] 	12538318
scalar barabasi_100nodes_network.node[7].content_store 	p_hit[7] 	0.19732518366046
scalar barabasi_100nodes_network.node[7].content_store 	hits[7] 	272925
scalar barabasi_100nodes_network.node[7].content_store 	misses[7] 	1110198
scalar barabasi_100nodes_network.node[7].content_store 	decision_yes[7] 	937545
scalar barabasi_100nodes_network.node[7].content_store 	decision_no[7] 	172653
scalar barabasi_100nodes_network.node[7].content_store 	decision_ratio[7] 	0.84448449735993
scalar barabasi_100nodes_network.node[7].content_store 	"representation_breakdown[7] 27554:6028:2642:1812:4010:" 	0
scalar barabasi_100nodes_network.node[7].proactive_component 	hdistance[7].proactive_component 	2.6659464492486
scalar barabasi_100nodes_network.node[7].proactive_component 	downloads[7].proactive_component 	167542
scalar barabasi_100nodes_network.node[7].proactive_component 	avg_time[7].proactive_component 	0
scalar barabasi_100nodes_network.node[8].core_layer 	interests[8] 	381942
scalar barabasi_100nodes_network.node[8].core_layer 	data[8] 	269779
scalar barabasi_100nodes_network.node[8].core_layer 	slots_sent[face$o[1]->client[8]] 	70625818
scalar barabasi_100nodes_network.node[8].core_layer 	slots_sent[face$o[2]->node[2]] 	0
scalar barabasi_100nodes_network.node[8].core_layer 	slots_sent[face$o[3]->node[12]] 	13865693
scalar barabasi_100nodes_network.node[8].core_layer 	slots_sent[face$o[4]->node[14]] 	9711478
scalar barabasi_100nodes_network.node[8].core_layer 	slots_sent[face$o[5]->node[17]] 	10115957
scalar barabasi_100nodes_network.node[8].core_layer 	slots_sent[face$o[6]->node[39]] 	25171352
scalar barabasi_100nodes_network.node[8].core_layer 	slots_sent[face$o[7]->node[61]] 	13820905
scalar barabasi_100nodes_network.node[8].core_layer 	slots_sent[face$o[8]->node[66]] 	13666960
scalar barabasi_100nodes_network.node[8].content_store 	p_hit[8] 	0.29366500672877
scalar barabasi_100nodes_network.node[8].content_store 	hits[8] 	112163
scalar barabasi_100nodes_network.node[8].content_store 	misses[8] 	269779
scalar barabasi_100nodes_network.node[8].content_store 	decision_yes[8] 	269779
scalar barabasi_100nodes_network.node[8].content_store 	decision_no[8] 	0
scalar barabasi_100nodes_network.node[8].content_store 	decision_ratio[8] 	1
scalar barabasi_100nodes_network.node[8].content_store 	"representation_breakdown[8] 25939:4306:1991:1652:4885:" 	0
scalar barabasi_100nodes_network.node[8].proactive_component 	hdistance[8].proactive_component 	2.7722747635639
scalar barabasi_100nodes_network.node[8].proactive_component 	downloads[8].proactive_component 	36162
scalar barabasi_100nodes_network.node[8].proactive_component 	avg_time[8].proactive_component 	0
scalar barabasi_100nodes_network.node[9].core_layer 	interests[9] 	96721
scalar barabasi_100nodes_network.node[9].core_layer 	data[9] 	39462
scalar barabasi_100nodes_network.node[9].core_layer 	slots_sent[face$o[1]->client[9]] 	73667391
scalar barabasi_100nodes_network.node[9].core_layer 	slots_sent[face$o[2]->node[5]] 	0
scalar barabasi_100nodes_network.node[9].content_store 	p_hit[9] 	0.59200173695475
scalar barabasi_100nodes_network.node[9].content_store 	hits[9] 	57259
scalar barabasi_100nodes_network.node[9].content_store 	misses[9] 	39462
scalar barabasi_100nodes_network.node[9].content_store 	decision_yes[9] 	39462
scalar barabasi_100nodes_network.node[9].content_store 	decision_no[9] 	0
scalar barabasi_100nodes_network.node[9].content_store 	decision_ratio[9] 	1
scalar barabasi_100nodes_network.node[9].content_store 	"representation_breakdown[9] 22714:2652:1415:1086:6142:" 	0
scalar barabasi_100nodes_network.node[9].proactive_component 	hdistance[9].proactive_component 	2.9142577168055
scalar barabasi_100nodes_network.node[9].proactive_component 	downloads[9].proactive_component 	4082
scalar barabasi_100nodes_network.node[9].proactive_component 	avg_time[9].proactive_component 	0
scalar barabasi_100nodes_network.node[10].core_layer 	interests[10] 	141498
scalar barabasi_100nodes_network.node[10].core_layer 	repo_load[10] 	29643
scalar barabasi_100nodes_network.node[10].core_layer 	data[10] 	55976
scalar barabasi_100nodes_network.node[10].core_layer 	slots_sent[face$o[1]->client[10]] 	63973527
scalar barabasi_100nodes_network.node[10].core_layer 	slots_sent[face$o[2]->node[0]] 	0
scalar barabasi_100nodes_network.node[10].core_layer 	slots_sent[face$o[3]->node[71]] 	12561234
scalar barabasi_100nodes_network.node[10].content_store 	p_hit[10] 	0.39491017540884
scalar barabasi_100nodes_network.node[10].content_store 	hits[10] 	55879
scalar barabasi_100nodes_network.node[10].content_store 	misses[10] 	85619
scalar barabasi_100nodes_network.node[10].content_store 	decision_yes[10] 	55976
scalar barabasi_100nodes_network.node[10].content_store 	decision_no[10] 	29643
scalar barabasi_100nodes_network.node[10].content_store 	decision_ratio[10] 	0.65378011889884
scalar barabasi_100nodes_network.node[10].content_store 	"representation_breakdown[10] 26767:3594:1644:1346:5323:" 	0
scalar barabasi_100nodes_network.node[10].proactive_component 	hdistance[10].proactive_component 	2.9646486964207
scalar barabasi_100nodes_network.node[10].proactive_component 	downloads[10].proactive_component 	6789
scalar barabasi_100nodes_network.node[10].proactive_component 	avg_time[10].proactive_component 	0
scalar barabasi_100nodes_network.node[11].core_layer 	interests[11] 	96926
scalar barabasi_100nodes_network.node[11].core_layer 	repo_load[11] 	27683
scalar barabasi_100nodes_network.node[11].core_layer 	data[11] 	30130
scalar barabasi_100nodes_network.node[11].core_layer 	slots_sent[face$o[1]->client[11]] 	52745581
scalar barabasi_100nodes_network.node[11].core_layer 	slots_sent[face$o[2]->node[0]] 	0
scalar barabasi_100nodes_network.node[11].content_store 	p_hit[11] 	0.40353465530405
scalar barabasi_100nodes_network.node[11].content_store 	hits[11] 	39113
scalar barabasi_100nodes_network.node[11].content_store 	misses[11] 	57813
scalar barabasi_100nodes_network.node[11].content_store 	decision_yes[11] 	30130
scalar barabasi_100nodes_network.node[11].content_store 	decision_no[11] 	27683
scalar barabasi_100nodes_network.node[11].content_store 	decision_ratio[11] 	0.52116306021137
scalar barabasi_100nodes_network.node[11].content_store 	"representation_breakdown[11] 17991:2012:1086:901:4583:" 	0
scalar barabasi_100nodes_network.node[11].proactive_component 	hdistance[11].proactive_component 	3.1461906100647
scalar barabasi_100nodes_network.node[11].proactive_component 	downloads[11].proactive_component 	3557
scalar barabasi_100nodes_network.node[11].proactive_component 	avg_time[11].proactive_component 	0
scalar barabasi_100nodes_network.node[12].core_layer 	interests[12] 	96703
scalar barabasi_100nodes_network.node[12].core_layer 	data[12] 	39651
scalar barabasi_100nodes_network.node[12].core_layer 	slots_sent[face$o[1]->client[12]] 	74144488
scalar barabasi_100nodes_network.node[12].core_layer 	slots_sent[face$o[2]->node[8]] 	0
scalar barabasi_100nodes_network.node[12].content_store 	p_hit[12] 	0.58997135559393
scalar barabasi_100nodes_network.node[12].content_store 	hits[12] 	57052
scalar barabasi_100nodes_network.node[12].content_store 	misses[12] 	39651
scalar barabasi_100nodes_network.node[12].content_store 	decision_yes[12] 	39651
scalar barabasi_100nodes_network.node[12].content_store 	decision_no[12] 	0
scalar barabasi_100nodes_network.node[12].content_store 	decision_ratio[12] 	1
scalar barabasi_100nodes_network.node[12].content_store 	"representation_breakdown[12] 22392:2549:1335:1131:6193:" 	0
scalar barabasi_100nodes_network.node[12].proactive_component 	hdistance[12].proactive_component 	2.7684319833853
scalar barabasi_100nodes_network.node[12].proactive_component 	downloads[12].proactive_component 	3852
scalar barabasi_100nodes_network.node[12].proactive_component 	avg_time[12].proactive_component 	0
scalar barabasi_100nodes_network.node[13].core_layer 	interests[13] 	255287
scalar barabasi_100nodes_network.node[13].core_layer 	repo_load[13] 	65798
scalar barabasi_100nodes_network.node[13].core_layer 	data[13] 	123349
scalar barabasi_100nodes_network.node[13].core_layer 	slots_sent[face$o[1]->client[13]] 	59378154
scalar barabasi_100nodes_network.node[13].core_layer 	slots_sent[face$o[2]->node[2]] 	0
scalar barabasi_100nodes_network.node[13].core_layer 	slots_sent[face$o[3]->node[67]] 	12908074
scalar barabasi_100nodes_network.node[13].core_layer 	slots_sent[face$o[4]->node[78]] 	31479807
scalar barabasi_100nodes_network.node[13].content_store 	p_hit[13] 	0.2590809559437
scalar barabasi_100nodes_network.node[13].content_store 	hits[13] 	66140
scalar barabasi_100nodes_network.node[13].content_store 	misses[13] 	189147
scalar barabasi_100nodes_network.node[13].content_store 	decision_yes[13] 	123349
scalar barabasi_100nodes_network.node[13].content_store 	decision_no[13] 	65798
scalar barabasi_100nodes_network.node[13].content_store 	decision_ratio[13] 	0.65213299708692
scalar barabasi_100nodes_network.node[13].content_store 	"representation_breakdown[13] 25398:4178:1933:1582:5032:" 	0
scalar barabasi_100nodes_network.node[13].proactive_component 	hdistance[13].proactive_component 	2.928284755576
scalar barabasi_100nodes_network.node[13].proactive_component 	downloads[13].proactive_component 	15199
scalar barabasi_100nodes_network.node[13].proactive_component 	avg_time[13].proactive_component 	0
scalar barabasi_100nodes_network.node[14].core_layer 	interests[14] 	95032
scalar barabasi_100nodes_network.node[14].core_layer 	repo_load[14] 	26300
scalar barabasi_100nodes_network.node[14].core_layer 	data[14] 	29310
scalar barabasi_100nodes_network.node[14].core_layer 	slots_sent[face$o[1]->client[14]] 	53656112
scalar barabasi_100nodes_network.node[14].core_layer 	slots_sent[face$o[2]->node[8]] 	0
scalar barabasi_100nodes_network.node[14].content_store 	p_hit[14] 	0.41482868928361
scalar barabasi_100nodes_network.node[14].content_store 	hits[14] 	39422
scalar barabasi_100nodes_network.node[14].content_store 	misses[14] 	55610
scalar barabasi_100nodes_network.node[14].content_store 	decision_yes[14] 	29310
scalar barabasi_100nodes_network.node[14].content_store 	decision_no[14] 	26300
scalar barabasi_100nodes_network.node[14].content_store 	decision_ratio[14] 	0.52706347779176
scalar barabasi_100nodes_network.node[14].content_store 	"representation_breakdown[14] 18021:1993:981:784:4627:" 	0
scalar barabasi_100nodes_network.node[14].proactive_component 	hdistance[14].proactive_component 	2.7572314049587
scalar barabasi_100nodes_network.node[14].proactive_component 	downloads[14].proactive_component 	2904
scalar barabasi_100nodes_network.node[14].proactive_component 	avg_time[14].proactive_component 	0
scalar barabasi_100nodes_network.node[15].core_layer 	interests[15] 	188896
scalar barabasi_100nodes_network.node[15].core_layer 	repo_load[15] 	50979
scalar barabasi_100nodes_network.node[15].core_layer 	data[15] 	81928
scalar barabasi_100nodes_network.node[15].core_layer 	slots_sent[face$o[1]->client[15]] 	53907546
scalar barabasi_100nodes_network.node[15].core_layer 	slots_sent[face$o[2]->node[0]] 	0
scalar barabasi_100nodes_network.node[15].core_layer 	slots_sent[face$o[3]->node[40]] 	12290851
scalar barabasi_100nodes_network.node[15].core_layer 	slots_sent[face$o[4]->node[56]] 	12252762
scalar barabasi_100nodes_network.node[15].content_store 	p_hit[15] 	0.29640119430798
scalar barabasi_100nodes_network.node[15].content_store 	hits[15] 	55989
scalar barabasi_100nodes_network.node[15].content_store 	misses[15] 	132907
scalar barabasi_100nodes_network.node[15].content_store 	decision_yes[15] 	81928
scalar barabasi_100nodes_network.node[15].content_store 	decision_no[15] 	50979
scalar barabasi_100nodes_network.node[15].content_store 	decision_ratio[15] 	0.61643103824479
scalar barabasi_100nodes_network.node[15].content_store 	"representation_breakdown[15] 28489:4580:1907:1463:4783:" 	0
scalar barabasi_100nodes_network.node[15].proactive_component 	hdistance[15].proactive_component 	3.0057054364659
scalar barabasi_100nodes_network.node[15].proactive_component 	downloads[15].proactive_component 	12269
scalar barabasi_100nodes_network.node[15].proactive_component 	avg_time[15].proactive_component 	0
scalar barabasi_100nodes_network.node[16].core_layer 	interests[16] 	326548
scalar barabasi_100nodes_network.node[16].core_layer 	data[16] 	242165
scalar barabasi_100nodes_network.node[16].core_layer 	slots_sent[face$o[1]->client[16]] 	71088260
scalar barabasi_100nodes_network.node[16].core_layer 	slots_sent[face$o[2]->node[2]] 	0
scalar barabasi_100nodes_network.node[16].core_layer 	slots_sent[face$o[3]->node[19]] 	53624626
scalar barabasi_100nodes_network.node[16].core_layer 	slots_sent[face$o[4]->node[20]] 	13793393
scalar barabasi_100nodes_network.node[16].content_store 	p_hit[16] 	0.25840917721131
scalar barabasi_100nodes_network.node[16].content_store 	hits[16] 	84383
scalar barabasi_100nodes_network.node[16].content_store 	misses[16] 	242165
scalar barabasi_100nodes_network.node[16].content_store 	decision_yes[16] 	242165
scalar barabasi_100nodes_network.node[16].content_store 	decision_no[16] 	0
scalar barabasi_100nodes_network.node[16].content_store 	decision_ratio[16] 	1
scalar barabasi_100nodes_network.node[16].content_store 	"representation_breakdown[16] 25753:4262:2045:1639:4896:" 	0
scalar barabasi_100nodes_network.node[16].proactive_component 	hdistance[16].proactive_component 	2.6956441320633
scalar barabasi_100nodes_network.node[16].proactive_component 	downloads[16].proactive_component 	21626
scalar barabasi_100nodes_network.node[16].proactive_component 	avg_time[16].proactive_component 	0
scalar barabasi_100nodes_network.node[17].core_layer 	interests[17] 	95741
scalar barabasi_100nodes_network.node[17].core_layer 	repo_load[17] 	21128
scalar barabasi_100nodes_network.node[17].core_layer 	data[17] 	29224
scalar barabasi_100nodes_network.node[17].core_layer 	slots_sent[face$o[1]->client[17]] 	60544555
scalar barabasi_100nodes_network.node[17].core_layer 	slots_sent[face$o[2]->node[8]] 	0
scalar barabasi_100nodes_network.node[17].content_store 	p_hit[17] 	0.47408111467396
scalar barabasi_100nodes_network.node[17].content_store 	hits[17] 	45389
scalar barabasi_100nodes_network.node[17].content_store 	misses[17] 	50352
scalar barabasi_100nodes_network.node[17].content_store 	decision_yes[17] 	29224
scalar barabasi_100nodes_network.node[17].content_store 	decision_no[17] 	21128
scalar barabasi_100nodes_network.node[17].content_store 	decision_ratio[17] 	0.58039402605656
scalar barabasi_100nodes_network.node[17].content_store 	"representation_breakdown[17] 17580:1938:1010:899:4944:" 	0
scalar barabasi_100nodes_network.node[17].proactive_component 	hdistance[17].proactive_component 	2.8310550297932
scalar barabasi_100nodes_network.node[17].proactive_component 	downloads[17].proactive_component 	2853
scalar barabasi_100nodes_network.node[17].proactive_component 	avg_time[17].proactive_component 	0
scalar barabasi_100nodes_network.node[18].core_layer 	interests[18] 	230678
scalar barabasi_100nodes_network.node[18].core_layer 	data[18] 	147995
scalar barabasi_100nodes_network.node[18].core_layer 	slots_sent[face$o[1]->client[18]] 	71173474
scalar barabasi_100nodes_network.node[18].core_layer 	slots_sent[face$o[2]->node[2]] 	0
scalar barabasi_100nodes_network.node[18].core_layer 	slots_sent[face$o[3]->node[53]] 	13710142
scalar barabasi_100nodes_network.node[18].core_layer 	slots_sent[face$o[4]->node[68]] 	14030710
scalar barabasi_100nodes_network.node[18].core_layer 	slots_sent[face$o[5]->node[72]] 	13793094
scalar barabasi_100nodes_network.node[18].content_store 	p_hit[18] 	0.3584347011852
scalar barabasi_100nodes_network.node[18].content_store 	hits[18] 	82683
scalar barabasi_100nodes_network.node[18].content_store 	misses[18] 	147995
scalar barabasi_100nodes_network.node[18].content_store 	decision_yes[18] 	147995
scalar barabasi_100nodes_network.node[18].content_store 	decision_no[18] 	0
scalar barabasi_100nodes_network.node[18].content_store 	decision_ratio[18] 	1
scalar barabasi_100nodes_network.node[18].content_store 	"representation_breakdown[18] 25277:4011:1897:1513:5140:" 	0
scalar barabasi_100nodes_network.node[18].proactive_component 	hdistance[18].proactive_component 	2.7820081734002
scalar barabasi_100nodes_network.node[18].proactive_component 	downloads[18].proactive_component 	19331
scalar barabasi_100nodes_network.node[18].proactive_component 	avg_time[18].proactive_component 	0
scalar barabasi_100nodes_network.node[19].core_layer 	interests[19] 	262212
scalar barabasi_100nodes_network.node[19].core_layer 	data[19] 	172818
scalar barabasi_100nodes_network.node[19].core_layer 	slots_sent[face$o[1]->client[19]] 	72862529
scalar barabasi_100nodes_network.node[19].core_layer 	slots_sent[face$o[2]->node[16]] 	0
scalar barabasi_100nodes_network.node[19].core_layer 	slots_sent[face$o[3]->node[63]] 	13675277
scalar barabasi_100nodes_network.node[19].core_layer 	slots_sent[face$o[4]->node[70]] 	13628746
scalar barabasi_100nodes_network.node[19].core_layer 	slots_sent[face$o[5]->node[80]] 	13676988
scalar barabasi_100nodes_network.node[19].core_layer 	slots_sent[face$o[6]->node[89]] 	10091011
scalar barabasi_100nodes_network.node[19].content_store 	p_hit[19] 	0.34092261223743
scalar barabasi_100nodes_network.node[19].content_store 	hits[19] 	89394
scalar barabasi_100nodes_network.node[19].content_store 	misses[19] 	172818
scalar barabasi_100nodes_network.node[19].content_store 	decision_yes[19] 	172818
scalar barabasi_100nodes_network.node[19].content_store 	decision_no[19] 	0
scalar barabasi_100nodes_network.node[19].content_store 	decision_ratio[19] 	1
scalar barabasi_100nodes_network.node[19].content_store 	"representation_breakdown[19] 25282:4043:1994:1528:5081:" 	0
scalar barabasi_100nodes_network.node[19].proactive_component 	hdistance[19].proactive_component 	3.2529696637427
scalar barabasi_100nodes_network.node[19].proactive_component 	downloads[19].proactive_component 	21888
scalar barabasi_100nodes_network.node[19].proactive_component 	avg_time[19].proactive_component 	0
scalar barabasi_100nodes_network.node[20].core_layer 	interests[20] 	96863
scalar barabasi_100nodes_network.node[20].core_layer 	data[20] 	39479
scalar barabasi_100nodes_network.node[20].core_layer 	slots_sent[face$o[1]->client[20]] 	74208438
scalar barabasi_100nodes_network.node[20].core_layer 	slots_sent[face$o[2]->node[16]] 	0
scalar barabasi_100nodes_network.node[20].content_store 	p_hit[20] 	0.59242435191972
scalar barabasi_100nodes_network.node[20].content_store 	hits[20] 	57384
scalar barabasi_100nodes_network.node[20].content_store 	misses[20] 	39479
scalar barabasi_100nodes_network.node[20].content_store 	decision_yes[20] 	39479
scalar barabasi_100nodes_network.node[20].content_store 	decision_no[20] 	0
scalar barabasi_100nodes_network.node[20].content_store 	decision_ratio[20] 	1
scalar barabasi_100nodes_network.node[20].content_store 	"representation_breakdown[20] 22191:2561:1390:1156:6166:" 	0
scalar barabasi_100nodes_network.node[20].proactive_component 	hdistance[20].proactive_component 	2.8190642110503
scalar barabasi_100nodes_network.node[20].proactive_component 	downloads[20].proactive_component 	4018
scalar barabasi_100nodes_network.node[20].proactive_component 	avg_time[20].proactive_component 	0
scalar barabasi_100nodes_network.node[21].core_layer 	interests[21] 	185837
scalar barabasi_100nodes_network.node[21].core_layer 	data[21] 	112317
scalar barabasi_100nodes_network.node[21].core_layer 	slots_sent[face$o[1]->client[21]] 	72035987
scalar barabasi_100nodes_network.node[21].core_layer 	slots_sent[face$o[2]->node[0]] 	0
scalar barabasi_100nodes_network.node[21].core_layer 	slots_sent[face$o[3]->node[24]] 	13390500
scalar barabasi_100nodes_network.node[21].core_layer 	slots_sent[face$o[4]->node[57]] 	13573486
scalar barabasi_100nodes_network.node[21].content_store 	p_hit[21] 	0.39561551251904
scalar barabasi_100nodes_network.node[21].content_store 	hits[21] 	73520
scalar barabasi_100nodes_network.node[21].content_store 	misses[21] 	112317
scalar barabasi_100nodes_network.node[21].content_store 	decision_yes[21] 	112317
scalar barabasi_100nodes_network.node[21].content_store 	decision_no[21] 	0
scalar barabasi_100nodes_network.node[21].content_store 	decision_ratio[21] 	1
scalar barabasi_100nodes_network.node[21].content_store 	"representation_breakdown[21] 24920:3829:1817:1532:5228:" 	0
scalar barabasi_100nodes_network.node[21].proactive_component 	hdistance[21].proactive_component 	2.989066027088
scalar barabasi_100nodes_network.node[21].proactive_component 	downloads[21].proactive_component 	14176
scalar barabasi_100nodes_network.node[21].proactive_component 	avg_time[21].proactive_component 	0
scalar barabasi_100nodes_network.node[22].core_layer 	interests[22] 	97318
scalar barabasi_100nodes_network.node[22].core_layer 	data[22] 	39989
scalar barabasi_100nodes_network.node[22].core_layer 	slots_sent[face$o[1]->client[22]] 	72512881
scalar barabasi_100nodes_network.node[22].core_layer 	slots_sent[face$o[2]->node[0]] 	0
scalar barabasi_100nodes_network.node[22].content_store 	p_hit[22] 	0.58908937709365
scalar barabasi_100nodes_network.node[22].content_store 	hits[22] 	57329
scalar barabasi_100nodes_network.node[22].content_store 	misses[22] 	39989
scalar barabasi_100nodes_network.node[22].content_store 	decision_yes[22] 	39989
scalar barabasi_100nodes_network.node[22].content_store 	decision_no[22] 	0
scalar barabasi_100nodes_network.node[22].content_store 	decision_ratio[22] 	1
scalar barabasi_100nodes_network.node[22].content_store 	"representation_breakdown[22] 23736:2665:1445:1185:5969:" 	0
scalar barabasi_100nodes_network.node[22].proactive_component 	hdistance[22].proactive_component 	2.8762024257633
scalar barabasi_100nodes_network.node[22].proactive_component 	downloads[22].proactive_component 	4782
scalar barabasi_100nodes_network.node[22].proactive_component 	avg_time[22].proactive_component 	0
scalar barabasi_100nodes_network.node[23].core_layer 	interests[23] 	1067399
scalar barabasi_100nodes_network.node[23].core_layer 	data[23] 	924657
scalar barabasi_100nodes_network.node[23].core_layer 	slots_sent[face$o[1]->client[23]] 	61533681
scalar barabasi_100nodes_network.node[23].core_layer 	slots_sent[face$o[2]->node[7]] 	193453772
scalar barabasi_100nodes_network.node[23].core_layer 	slots_sent[face$o[3]->node[46]] 	15494069
scalar barabasi_100nodes_network.node[23].core_layer 	slots_sent[face$o[4]->node[47]] 	9349185
scalar barabasi_100nodes_network.node[23].core_layer 	slots_sent[face$o[5]->node[51]] 	12593555
scalar barabasi_100nodes_network.node[23].core_layer 	slots_sent[face$o[6]->node[83]] 	12462907
scalar barabasi_100nodes_network.node[23].core_layer 	slots_sent[face$o[7]->node[86]] 	12478454
scalar barabasi_100nodes_network.node[23].content_store 	p_hit[23] 	0.13372881181264
scalar barabasi_100nodes_network.node[23].content_store 	hits[23] 	142742
scalar barabasi_100nodes_network.node[23].content_store 	misses[23] 	924657
scalar barabasi_100nodes_network.node[23].content_store 	decision_yes[23] 	924657
scalar barabasi_100nodes_network.node[23].content_store 	decision_no[23] 	0
scalar barabasi_100nodes_network.node[23].content_store 	decision_ratio[23] 	1
scalar barabasi_100nodes_network.node[23].content_store 	"representation_breakdown[23] 28471:6338:2818:1833:3779:" 	0
scalar barabasi_100nodes_network.node[23].proactive_component 	hdistance[23].proactive_component 	2.0698640635715
scalar barabasi_100nodes_network.node[23].proactive_component 	downloads[23].proactive_component 	74373
scalar barabasi_100nodes_network.node[23].proactive_component 	avg_time[23].proactive_component 	0
scalar barabasi_100nodes_network.node[24].core_layer 	interests[24] 	97010
scalar barabasi_100nodes_network.node[24].core_layer 	data[24] 	39382
scalar barabasi_100nodes_network.node[24].core_layer 	slots_sent[face$o[1]->client[24]] 	73941664
scalar barabasi_100nodes_network.node[24].core_layer 	slots_sent[face$o[2]->node[21]] 	0
scalar barabasi_100nodes_network.node[24].content_store 	p_hit[24] 	0.59404185135553
scalar barabasi_100nodes_network.node[24].content_store 	hits[24] 	57628
scalar barabasi_100nodes_network.node[24].content_store 	misses[24] 	39382
scalar barabasi_100nodes_network.node[24].content_store 	decision_yes[24] 	39382
scalar barabasi_100nodes_network.node[24].content_store 	decision_no[24] 	0
scalar barabasi_100nodes_network.node[24].content_store 	decision_ratio[24] 	1
scalar barabasi_100nodes_network.node[24].content_store 	"representation_breakdown[24] 22833:2650:1337:1131:6134:" 	0
scalar barabasi_100nodes_network.node[24].proactive_component 	hdistance[24].proactive_component 	2.9092898832685
scalar barabasi_100nodes_network.node[24].proactive_component 	downloads[24].proactive_component 	4112
scalar barabasi_100nodes_network.node[24].proactive_component 	avg_time[24].proactive_component 	0
scalar barabasi_100nodes_network.node[25].core_layer 	interests[25] 	141325
scalar barabasi_100nodes_network.node[25].core_layer 	data[25] 	76709
scalar barabasi_100nodes_network.node[25].core_layer 	slots_sent[face$o[1]->client[25]] 	72786223
scalar barabasi_100nodes_network.node[25].core_layer 	slots_sent[face$o[2]->node[2]] 	0
scalar barabasi_100nodes_network.node[25].core_layer 	slots_sent[face$o[3]->node[38]] 	13310330
scalar barabasi_100nodes_network.node[25].content_store 	p_hit[25] 	0.45721563771449
scalar barabasi_100nodes_network.node[25].content_store 	hits[25] 	64616
scalar barabasi_100nodes_network.node[25].content_store 	misses[25] 	76709
scalar barabasi_100nodes_network.node[25].content_store 	decision_yes[25] 	76709
scalar barabasi_100nodes_network.node[25].content_store 	decision_no[25] 	0
scalar barabasi_100nodes_network.node[25].content_store 	decision_ratio[25] 	1
scalar barabasi_100nodes_network.node[25].content_store 	"representation_breakdown[25] 24796:3636:1703:1483:5361:" 	0
scalar barabasi_100nodes_network.node[25].proactive_component 	hdistance[25].proactive_component 	2.742054610564
scalar barabasi_100nodes_network.node[25].proactive_component 	downloads[25].proactive_component 	8936
scalar barabasi_100nodes_network.node[25].proactive_component 	avg_time[25].proactive_component 	0
scalar barabasi_100nodes_network.node[26].core_layer 	interests[26] 	224514
scalar barabasi_100nodes_network.node[26].core_layer 	data[26] 	146950
scalar barabasi_100nodes_network.node[26].core_layer 	slots_sent[face$o[1]->client[26]] 	71372946
scalar barabasi_100nodes_network.node[26].core_layer 	slots_sent[face$o[2]->node[2]] 	0
scalar barabasi_100nodes_network.node[26].core_layer 	slots_sent[face$o[3]->node[77]] 	24710103
scalar barabasi_100nodes_network.node[26].core_layer 	slots_sent[face$o[4]->node[91]] 	13570902
scalar barabasi_100nodes_network.node[26].content_store 	p_hit[26] 	0.34547511513759
scalar barabasi_100nodes_network.node[26].content_store 	hits[26] 	77564
scalar barabasi_100nodes_network.node[26].content_store 	misses[26] 	146950
scalar barabasi_100nodes_network.node[26].content_store 	decision_yes[26] 	146950
scalar barabasi_100nodes_network.node[26].content_store 	decision_no[26] 	0
scalar barabasi_100nodes_network.node[26].content_store 	decision_ratio[26] 	1
scalar barabasi_100nodes_network.node[26].content_store 	"representation_breakdown[26] 25454:4158:1820:1561:5094:" 	0
scalar barabasi_100nodes_network.node[26].proactive_component 	hdistance[26].proactive_component 	2.7862694300518
scalar barabasi_100nodes_network.node[26].proactive_component 	downloads[26].proactive_component 	16984
scalar barabasi_100nodes_network.node[26].proactive_component 	avg_time[26].proactive_component 	0
scalar barabasi_100nodes_network.node[27].core_layer 	interests[27] 	139617
scalar barabasi_100nodes_network.node[27].core_layer 	data[27] 	75554
scalar barabasi_100nodes_network.node[27].core_layer 	slots_sent[face$o[1]->client[27]] 	73873972
scalar barabasi_100nodes_network.node[27].core_layer 	slots_sent[face$o[2]->node[4]] 	0
scalar barabasi_100nodes_network.node[27].core_layer 	slots_sent[face$o[3]->node[99]] 	13560255
scalar barabasi_100nodes_network.node[27].content_store 	p_hit[27] 	0.45884813453949
scalar barabasi_100nodes_network.node[27].content_store 	hits[27] 	64063
scalar barabasi_100nodes_network.node[27].content_store 	misses[27] 	75554
scalar barabasi_100nodes_network.node[27].content_store 	decision_yes[27] 	75554
scalar barabasi_100nodes_network.node[27].content_store 	decision_no[27] 	0
scalar barabasi_100nodes_network.node[27].content_store 	decision_ratio[27] 	1
scalar barabasi_100nodes_network.node[27].content_store 	"representation_breakdown[27] 24167:3429:1587:1357:5595:" 	0
scalar barabasi_100nodes_network.node[27].proactive_component 	hdistance[27].proactive_component 	2.9262745098039
scalar barabasi_100nodes_network.node[27].proactive_component 	downloads[27].proactive_component 	7650
scalar barabasi_100nodes_network.node[27].proactive_component 	avg_time[27].proactive_component 	0
scalar barabasi_100nodes_network.node[28].core_layer 	interests[28] 	97534
scalar barabasi_100nodes_network.node[28].core_layer 	data[28] 	39866
scalar barabasi_100nodes_network.node[28].core_layer 	slots_sent[face$o[1]->client[28]] 	73038659
scalar barabasi_100nodes_network.node[28].core_layer 	slots_sent[face$o[2]->node[0]] 	0
scalar barabasi_100nodes_network.node[28].content_store 	p_hit[28] 	0.59126048352369
scalar barabasi_100nodes_network.node[28].content_store 	hits[28] 	57668
scalar barabasi_100nodes_network.node[28].content_store 	misses[28] 	39866
scalar barabasi_100nodes_network.node[28].content_store 	decision_yes[28] 	39866
scalar barabasi_100nodes_network.node[28].content_store 	decision_no[28] 	0
scalar barabasi_100nodes_network.node[28].content_store 	decision_ratio[28] 	1
scalar barabasi_100nodes_network.node[28].content_store 	"representation_breakdown[28] 23820:2644:1403:1206:5969:" 	0
scalar barabasi_100nodes_network.node[28].proactive_component 	hdistance[28].proactive_component 	2.9007567567568
scalar barabasi_100nodes_network.node[28].proactive_component 	downloads[28].proactive_component 	4625
scalar barabasi_100nodes_network.node[28].proactive_component 	avg_time[28].proactive_component 	0
scalar barabasi_100nodes_network.node[29].core_layer 	interests[29] 	97394
scalar barabasi_100nodes_network.node[29].core_layer 	data[29] 	40296
scalar barabasi_100nodes_network.node[29].core_layer 	slots_sent[face$o[1]->client[29]] 	72389955
scalar barabasi_100nodes_network.node[29].core_layer 	slots_sent[face$o[2]->node[2]] 	0
scalar barabasi_100nodes_network.node[29].content_store 	p_hit[29] 	0.58624761278929
scalar barabasi_100nodes_network.node[29].content_store 	hits[29] 	57097
scalar barabasi_100nodes_network.node[29].content_store 	misses[29] 	40297
scalar barabasi_100nodes_network.node[29].content_store 	decision_yes[29] 	40296
scalar barabasi_100nodes_network.node[29].content_store 	decision_no[29] 	0
scalar barabasi_100nodes_network.node[29].content_store 	decision_ratio[29] 	1
scalar barabasi_100nodes_network.node[29].content_store 	"representation_breakdown[29] 23565:2779:1425:1199:5959:" 	0
scalar barabasi_100nodes_network.node[29].proactive_component 	hdistance[29].proactive_component 	2.6633829385873
scalar barabasi_100nodes_network.node[29].proactive_component 	downloads[29].proactive_component 	4771
scalar barabasi_100nodes_network.node[29].proactive_component 	avg_time[29].proactive_component 	0
scalar barabasi_100nodes_network.node[30].core_layer 	interests[30] 	139994
scalar barabasi_100nodes_network.node[30].core_layer 	data[30] 	75796
scalar barabasi_100nodes_network.node[30].core_layer 	slots_sent[face$o[1]->client[30]] 	73970592
scalar barabasi_100nodes_network.node[30].core_layer 	slots_sent[face$o[2]->node[4]] 	0
scalar barabasi_100nodes_network.node[30].core_layer 	slots_sent[face$o[3]->node[88]] 	13780667
scalar barabasi_100nodes_network.node[30].content_store 	p_hit[30] 	0.45857679614841
scalar barabasi_100nodes_network.node[30].content_store 	hits[30] 	64198
scalar barabasi_100nodes_network.node[30].content_store 	misses[30] 	75796
scalar barabasi_100nodes_network.node[30].content_store 	decision_yes[30] 	75796
scalar barabasi_100nodes_network.node[30].content_store 	decision_no[30] 	0
scalar barabasi_100nodes_network.node[30].content_store 	decision_ratio[30] 	1
scalar barabasi_100nodes_network.node[30].content_store 	"representation_breakdown[30] 23913:3386:1625:1343:5620:" 	0
scalar barabasi_100nodes_network.node[30].proactive_component 	hdistance[30].proactive_component 	2.8971556491967
scalar barabasi_100nodes_network.node[30].proactive_component 	downloads[30].proactive_component 	7594
scalar barabasi_100nodes_network.node[30].proactive_component 	avg_time[30].proactive_component 	0
scalar barabasi_100nodes_network.node[31].core_layer 	interests[31] 	214366
scalar barabasi_100nodes_network.node[31].core_layer 	data[31] 	142746
scalar barabasi_100nodes_network.node[31].core_layer 	slots_sent[face$o[1]->client[31]] 	70059978
scalar barabasi_100nodes_network.node[31].core_layer 	slots_sent[face$o[2]->node[7]] 	0
scalar barabasi_100nodes_network.node[31].core_layer 	slots_sent[face$o[3]->node[65]] 	31015093
scalar barabasi_100nodes_network.node[31].content_store 	p_hit[31] 	0.33410148997509
scalar barabasi_100nodes_network.node[31].content_store 	hits[31] 	71620
scalar barabasi_100nodes_network.node[31].content_store 	misses[31] 	142746
scalar barabasi_100nodes_network.node[31].content_store 	decision_yes[31] 	142746
scalar barabasi_100nodes_network.node[31].content_store 	decision_no[31] 	0
scalar barabasi_100nodes_network.node[31].content_store 	decision_ratio[31] 	1
scalar barabasi_100nodes_network.node[31].content_store 	"representation_breakdown[31] 27749:4425:2038:1546:4762:" 	0
scalar barabasi_100nodes_network.node[31].proactive_component 	hdistance[31].proactive_component 	2.5449564134496
scalar barabasi_100nodes_network.node[31].proactive_component 	downloads[31].proactive_component 	16060
scalar barabasi_100nodes_network.node[31].proactive_component 	avg_time[31].proactive_component 	0
scalar barabasi_100nodes_network.node[32].core_layer 	interests[32] 	185361
scalar barabasi_100nodes_network.node[32].core_layer 	data[32] 	111877
scalar barabasi_100nodes_network.node[32].core_layer 	slots_sent[face$o[1]->client[32]] 	72121650
scalar barabasi_100nodes_network.node[32].core_layer 	slots_sent[face$o[2]->node[2]] 	0
scalar barabasi_100nodes_network.node[32].core_layer 	slots_sent[face$o[3]->node[43]] 	13582765
scalar barabasi_100nodes_network.node[32].core_layer 	slots_sent[face$o[4]->node[64]] 	13456149
scalar barabasi_100nodes_network.node[32].content_store 	p_hit[32] 	0.39643722250096
scalar barabasi_100nodes_network.node[32].content_store 	hits[32] 	73484
scalar barabasi_100nodes_network.node[32].content_store 	misses[32] 	111877
scalar barabasi_100nodes_network.node[32].content_store 	decision_yes[32] 	111877
scalar barabasi_100nodes_network.node[32].content_store 	decision_no[32] 	0
scalar barabasi_100nodes_network.node[32].content_store 	decision_ratio[32] 	1
scalar barabasi_100nodes_network.node[32].content_store 	"representation_breakdown[32] 25024:3821:1889:1496:5215:" 	0
scalar barabasi_100nodes_network.node[32].proactive_component 	hdistance[32].proactive_component 	2.7901506537806
scalar barabasi_100nodes_network.node[32].proactive_component 	downloads[32].proactive_component 	14072
scalar barabasi_100nodes_network.node[32].proactive_component 	avg_time[32].proactive_component 	0
scalar barabasi_100nodes_network.node[33].core_layer 	interests[33] 	97383
scalar barabasi_100nodes_network.node[33].core_layer 	data[33] 	39920
scalar barabasi_100nodes_network.node[33].core_layer 	slots_sent[face$o[1]->client[33]] 	72690669
scalar barabasi_100nodes_network.node[33].core_layer 	slots_sent[face$o[2]->node[2]] 	0
scalar barabasi_100nodes_network.node[33].content_store 	p_hit[33] 	0.59007218919113
scalar barabasi_100nodes_network.node[33].content_store 	hits[33] 	57463
scalar barabasi_100nodes_network.node[33].content_store 	misses[33] 	39920
scalar barabasi_100nodes_network.node[33].content_store 	decision_yes[33] 	39920
scalar barabasi_100nodes_network.node[33].content_store 	decision_no[33] 	0
scalar barabasi_100nodes_network.node[33].content_store 	decision_ratio[33] 	1
scalar barabasi_100nodes_network.node[33].content_store 	"representation_breakdown[33] 23193:2700:1504:1162:5999:" 	0
[...]
scalar barabasi_100nodes_network.client[8] 	downloads[8].real 	92578
scalar barabasi_100nodes_network.client[8] 	avg_time[8].real 	0
scalar barabasi_100nodes_network.client[9] 	hdistance[9].real 	1.5605090728527
scalar barabasi_100nodes_network.client[9] 	downloads[9].real 	92639
scalar barabasi_100nodes_network.client[9] 	avg_time[9].real 	0
scalar barabasi_100nodes_network.client[10] 	hdistance[10].real 	1.0932144125147
scalar barabasi_100nodes_network.client[10] 	downloads[10].real 	92947
scalar barabasi_100nodes_network.client[10] 	avg_time[10].real 	0
scalar barabasi_100nodes_network.client[11] 	hdistance[11].real 	1.3974980989408
scalar barabasi_100nodes_network.client[11] 	downloads[11].real 	93369
scalar barabasi_100nodes_network.client[11] 	avg_time[11].real 	0
scalar barabasi_100nodes_network.client[12] 	hdistance[12].real 	1.4245511626154
scalar barabasi_100nodes_network.client[12] 	downloads[12].real 	92851
scalar barabasi_100nodes_network.client[12] 	avg_time[12].real 	0
scalar barabasi_100nodes_network.client[13] 	hdistance[13].real 	1.0573666590828
scalar barabasi_100nodes_network.client[13] 	downloads[13].real 	92301
scalar barabasi_100nodes_network.client[13] 	avg_time[13].real 	0
scalar barabasi_100nodes_network.client[14] 	hdistance[14].real 	1.3284234977423
scalar barabasi_100nodes_network.client[14] 	downloads[14].real 	92128
scalar barabasi_100nodes_network.client[14] 	avg_time[14].real 	0
scalar barabasi_100nodes_network.client[15] 	hdistance[15].real 	1.1350167123757
scalar barabasi_100nodes_network.client[15] 	downloads[15].real 	93344
scalar barabasi_100nodes_network.client[15] 	avg_time[15].real 	0
scalar barabasi_100nodes_network.client[16] 	hdistance[16].real 	1.170375168691
scalar barabasi_100nodes_network.client[16] 	downloads[16].real 	92625
scalar barabasi_100nodes_network.client[16] 	avg_time[16].real 	0
scalar barabasi_100nodes_network.client[17] 	hdistance[17].real 	1.2930949099991
scalar barabasi_100nodes_network.client[17] 	downloads[17].real 	92888
scalar barabasi_100nodes_network.client[17] 	avg_time[17].real 	0
scalar barabasi_100nodes_network.client[18] 	hdistance[18].real 	1.1647762358218
scalar barabasi_100nodes_network.client[18] 	downloads[18].real 	92307
scalar barabasi_100nodes_network.client[18] 	avg_time[18].real 	0
scalar barabasi_100nodes_network.client[19] 	hdistance[19].real 	1.4514619380877
scalar barabasi_100nodes_network.client[19] 	downloads[19].real 	93164
scalar barabasi_100nodes_network.client[19] 	avg_time[19].real 	0
scalar barabasi_100nodes_network.client[20] 	hdistance[20].real 	1.4156281975335
scalar barabasi_100nodes_network.client[20] 	downloads[20].real 	92845
scalar barabasi_100nodes_network.client[20] 	avg_time[20].real 	0
scalar barabasi_100nodes_network.client[21] 	hdistance[21].real 	1.282061250054
scalar barabasi_100nodes_network.client[21] 	downloads[21].real 	92604
scalar barabasi_100nodes_network.client[21] 	avg_time[21].real 	0
scalar barabasi_100nodes_network.client[22] 	hdistance[22].real 	1.3119650730526
scalar barabasi_100nodes_network.client[22] 	downloads[22].real 	92536
scalar barabasi_100nodes_network.client[22] 	avg_time[22].real 	0
scalar barabasi_100nodes_network.client[23] 	hdistance[23].real 	1.2026754409623
scalar barabasi_100nodes_network.client[23] 	downloads[23].real 	92695
scalar barabasi_100nodes_network.client[23] 	avg_time[23].real 	0
scalar barabasi_100nodes_network.client[24] 	hdistance[24].real 	1.5634782234278
scalar barabasi_100nodes_network.client[24] 	downloads[24].real 	92898
scalar barabasi_100nodes_network.client[24] 	avg_time[24].real 	0
scalar barabasi_100nodes_network.client[25] 	hdistance[25].real 	1.1478577821872
scalar barabasi_100nodes_network.client[25] 	downloads[25].real 	92731
scalar barabasi_100nodes_network.client[25] 	avg_time[25].real 	0
scalar barabasi_100nodes_network.client[26] 	hdistance[26].real 	1.1656961641701
scalar barabasi_100nodes_network.client[26] 	downloads[26].real 	92392
scalar barabasi_100nodes_network.client[26] 	avg_time[26].real 	0
scalar barabasi_100nodes_network.client[27] 	hdistance[27].real 	1.3974378345709
scalar barabasi_100nodes_network.client[27] 	downloads[27].real 	92656
scalar barabasi_100nodes_network.client[27] 	avg_time[27].real 	0
scalar barabasi_100nodes_network.client[28] 	hdistance[28].real 	1.313177410154
scalar barabasi_100nodes_network.client[28] 	downloads[28].real 	92909
scalar barabasi_100nodes_network.client[28] 	avg_time[28].real 	0
scalar barabasi_100nodes_network.client[29] 	hdistance[29].real 	1.1982574334392
scalar barabasi_100nodes_network.client[29] 	downloads[29].real 	92622
scalar barabasi_100nodes_network.client[29] 	avg_time[29].real 	0
scalar barabasi_100nodes_network.client[30] 	hdistance[30].real 	1.3966525487498
scalar barabasi_100nodes_network.client[30] 	downloads[30].real 	93026
scalar barabasi_100nodes_network.client[30] 	avg_time[30].real 	0
scalar barabasi_100nodes_network.client[31] 	hdistance[31].real 	1.1054114142635
scalar barabasi_100nodes_network.client[31] 	downloads[31].real 	92656
scalar barabasi_100nodes_network.client[31] 	avg_time[31].real 	0
scalar barabasi_100nodes_network.client[32] 	hdistance[32].real 	1.1569657672431
scalar barabasi_100nodes_network.client[32] 	downloads[32].real 	92689
scalar barabasi_100nodes_network.client[32] 	avg_time[32].real 	0
scalar barabasi_100nodes_network.client[33] 	hdistance[33].real 	1.1793336719366
scalar barabasi_100nodes_network.client[33] 	downloads[33].real 	92537
scalar barabasi_100nodes_network.client[33] 	avg_time[33].real 	0
scalar barabasi_100nodes_network.client[34] 	hdistance[34].real 	1.19715256431
scalar barabasi_100nodes_network.client[34] 	downloads[34].real 	92715
scalar barabasi_100nodes_network.client[34] 	avg_time[34].real 	0
scalar barabasi_100nodes_network.client[35] 	hdistance[35].real 	1.5404424044564
scalar barabasi_100nodes_network.client[35] 	downloads[35].real 	92811
scalar barabasi_100nodes_network.client[35] 	avg_time[35].real 	0
scalar barabasi_100nodes_network.client[36] 	hdistance[36].real 	1.1467973066298
scalar barabasi_100nodes_network.client[36] 	downloads[36].real 	92672
scalar barabasi_100nodes_network.client[36] 	avg_time[36].real 	0
scalar barabasi_100nodes_network.client[37] 	hdistance[37].real 	1.3076000648193
scalar barabasi_100nodes_network.client[37] 	downloads[37].real 	92565
scalar barabasi_100nodes_network.client[37] 	avg_time[37].real 	0
scalar barabasi_100nodes_network.client[38] 	hdistance[38].real 	1.4816053511706
scalar barabasi_100nodes_network.client[38] 	downloads[38].real 	92690
scalar barabasi_100nodes_network.client[38] 	avg_time[38].real 	0
scalar barabasi_100nodes_network.client[39] 	hdistance[39].real 	1.3972302030539
scalar barabasi_100nodes_network.client[39] 	downloads[39].real 	92931
scalar barabasi_100nodes_network.client[39] 	avg_time[39].real 	0
scalar barabasi_100nodes_network.client[40] 	hdistance[40].real 	1.2891134747936
scalar barabasi_100nodes_network.client[40] 	downloads[40].real 	92417
scalar barabasi_100nodes_network.client[40] 	avg_time[40].real 	0
scalar barabasi_100nodes_network.client[41] 	hdistance[41].real 	1.0854487221104
scalar barabasi_100nodes_network.client[41] 	downloads[41].real 	92418
scalar barabasi_100nodes_network.client[41] 	avg_time[41].real 	0
scalar barabasi_100nodes_network.client[42] 	hdistance[42].real 	1.2215257129976
scalar barabasi_100nodes_network.client[42] 	downloads[42].real 	93163
scalar barabasi_100nodes_network.client[42] 	avg_time[42].real 	0
scalar barabasi_100nodes_network.client[43] 	hdistance[43].real 	1.4399965693947
scalar barabasi_100nodes_network.client[43] 	downloads[43].real 	93278
scalar barabasi_100nodes_network.client[43] 	avg_time[43].real 	0
scalar barabasi_100nodes_network.client[44] 	hdistance[44].real 	1.3153443458339
scalar barabasi_100nodes_network.client[44] 	downloads[44].real 	93409
scalar barabasi_100nodes_network.client[44] 	avg_time[44].real 	0
scalar barabasi_100nodes_network.client[45] 	hdistance[45].real 	1.1914191419142
scalar barabasi_100nodes_network.client[45] 	downloads[45].real 	93021
scalar barabasi_100nodes_network.client[45] 	avg_time[45].real 	0
scalar barabasi_100nodes_network.client[46] 	hdistance[46].real 	1.3273334630603
scalar barabasi_100nodes_network.client[46] 	downloads[46].real 	92502
scalar barabasi_100nodes_network.client[46] 	avg_time[46].real 	0
scalar barabasi_100nodes_network.client[47] 	hdistance[47].real 	1.0908416320736
scalar barabasi_100nodes_network.client[47] 	downloads[47].real 	92986
scalar barabasi_100nodes_network.client[47] 	avg_time[47].real 	0
scalar barabasi_100nodes_network.client[48] 	hdistance[48].real 	1.2227098308382
scalar barabasi_100nodes_network.client[48] 	downloads[48].real 	92515
scalar barabasi_100nodes_network.client[48] 	avg_time[48].real 	0
scalar barabasi_100nodes_network.client[49] 	hdistance[49].real 	1.1536713873051
scalar barabasi_100nodes_network.client[49] 	downloads[49].real 	92431
scalar barabasi_100nodes_network.client[49] 	avg_time[49].real 	0
scalar barabasi_100nodes_network.client[50] 	hdistance[50].real 	1.8861436878958
scalar barabasi_100nodes_network.client[50] 	downloads[50].real 	92687
scalar barabasi_100nodes_network.client[50] 	avg_time[50].real 	0
scalar barabasi_100nodes_network.client[51] 	hdistance[51].real 	1.3368619551708
scalar barabasi_100nodes_network.client[51] 	downloads[51].real 	93332
scalar barabasi_100nodes_network.client[51] 	avg_time[51].real 	0
scalar barabasi_100nodes_network.client[52] 	hdistance[52].real 	1.483693373047
scalar barabasi_100nodes_network.client[52] 	downloads[52].real 	92999
scalar barabasi_100nodes_network.client[52] 	avg_time[52].real 	0
scalar barabasi_100nodes_network.client[53] 	hdistance[53].real 	1.4337789881099
scalar barabasi_100nodes_network.client[53] 	downloads[53].real 	93271
scalar barabasi_100nodes_network.client[53] 	avg_time[53].real 	0
scalar barabasi_100nodes_network.client[54] 	hdistance[54].real 	1.1804953293207
scalar barabasi_100nodes_network.client[54] 	downloads[54].real 	92706
scalar barabasi_100nodes_network.client[54] 	avg_time[54].real 	0
scalar barabasi_100nodes_network.client[55] 	hdistance[55].real 	1.2249084643549
scalar barabasi_100nodes_network.client[55] 	downloads[55].real 	92860
scalar barabasi_100nodes_network.client[55] 	avg_time[55].real 	0
scalar barabasi_100nodes_network.client[56] 	hdistance[56].real 	1.2984473089931
scalar barabasi_100nodes_network.client[56] 	downloads[56].real 	92549
scalar barabasi_100nodes_network.client[56] 	avg_time[56].real 	0
scalar barabasi_100nodes_network.client[57] 	hdistance[57].real 	1.5717120363816
scalar barabasi_100nodes_network.client[57] 	downloads[57].real 	93234
scalar barabasi_100nodes_network.client[57] 	avg_time[57].real 	0
scalar barabasi_100nodes_network.client[58] 	hdistance[58].real 	1.284922871711
scalar barabasi_100nodes_network.client[58] 	downloads[58].real 	92962
scalar barabasi_100nodes_network.client[58] 	avg_time[58].real 	0
scalar barabasi_100nodes_network.client[59] 	hdistance[59].real 	1.1911421409899
scalar barabasi_100nodes_network.client[59] 	downloads[59].real 	92957
scalar barabasi_100nodes_network.client[59] 	avg_time[59].real 	0
scalar barabasi_100nodes_network.client[60] 	hdistance[60].real 	1.7286070430287
scalar barabasi_100nodes_network.client[60] 	downloads[60].real 	92659
scalar barabasi_100nodes_network.client[60] 	avg_time[60].real 	0
scalar barabasi_100nodes_network.client[61] 	hdistance[61].real 	1.4201030650558
scalar barabasi_100nodes_network.client[61] 	downloads[61].real 	92951
scalar barabasi_100nodes_network.client[61] 	avg_time[61].real 	0
scalar barabasi_100nodes_network.client[62] 	hdistance[62].real 	1.1522760756649
scalar barabasi_100nodes_network.client[62] 	downloads[62].real 	92989
scalar barabasi_100nodes_network.client[62] 	avg_time[62].real 	0
scalar barabasi_100nodes_network.client[63] 	hdistance[63].real 	1.6997402261434
scalar barabasi_100nodes_network.client[63] 	downloads[63].real 	92773
scalar barabasi_100nodes_network.client[63] 	avg_time[63].real 	0
scalar barabasi_100nodes_network.client[64] 	hdistance[64].real 	1.4384129533566
scalar barabasi_100nodes_network.client[64] 	downloads[64].real 	92146
scalar barabasi_100nodes_network.client[64] 	avg_time[64].real 	0
scalar barabasi_100nodes_network.client[65] 	hdistance[65].real 	1.3947750988015
scalar barabasi_100nodes_network.client[65] 	downloads[65].real 	92863
scalar barabasi_100nodes_network.client[65] 	avg_time[65].real 	0
scalar barabasi_100nodes_network.client[66] 	hdistance[66].real 	1.4166675630035
scalar barabasi_100nodes_network.client[66] 	downloads[66].real 	92971
scalar barabasi_100nodes_network.client[66] 	avg_time[66].real 	0
scalar barabasi_100nodes_network.client[67] 	hdistance[67].real 	1.2536623141954
scalar barabasi_100nodes_network.client[67] 	downloads[67].real 	92974
scalar barabasi_100nodes_network.client[67] 	avg_time[67].real 	0
scalar barabasi_100nodes_network.client[68] 	hdistance[68].real 	1.4290754283999
scalar barabasi_100nodes_network.client[68] 	downloads[68].real 	93254
scalar barabasi_100nodes_network.client[68] 	avg_time[68].real 	0
scalar barabasi_100nodes_network.client[69] 	hdistance[69].real 	1.1979852018034
scalar barabasi_100nodes_network.client[69] 	downloads[69].real 	92714
scalar barabasi_100nodes_network.client[69] 	avg_time[69].real 	0
scalar barabasi_100nodes_network.client[70] 	hdistance[70].real 	1.7135606764141
scalar barabasi_100nodes_network.client[70] 	downloads[70].real 	92606
scalar barabasi_100nodes_network.client[70] 	avg_time[70].real 	0
scalar barabasi_100nodes_network.client[71] 	hdistance[71].real 	1.3666199460917
scalar barabasi_100nodes_network.client[71] 	downloads[71].real 	92750
scalar barabasi_100nodes_network.client[71] 	avg_time[71].real 	0
scalar barabasi_100nodes_network.client[72] 	hdistance[72].real 	1.4360869846333
scalar barabasi_100nodes_network.client[72] 	downloads[72].real 	92798
scalar barabasi_100nodes_network.client[72] 	avg_time[72].real 	0
scalar barabasi_100nodes_network.client[73] 	hdistance[73].real 	1.281111758486
scalar barabasi_100nodes_network.client[73] 	downloads[73].real 	92682
scalar barabasi_100nodes_network.client[73] 	avg_time[73].real 	0
scalar barabasi_100nodes_network.client[74] 	hdistance[74].real 	1.3142912596235
scalar barabasi_100nodes_network.client[74] 	downloads[74].real 	92742
scalar barabasi_100nodes_network.client[74] 	avg_time[74].real 	0
scalar barabasi_100nodes_network.client[75] 	hdistance[75].real 	1.472269831517
scalar barabasi_100nodes_network.client[75] 	downloads[75].real 	92769
scalar barabasi_100nodes_network.client[75] 	avg_time[75].real 	0
scalar barabasi_100nodes_network.client[76] 	hdistance[76].real 	1.6139646783399
scalar barabasi_100nodes_network.client[76] 	downloads[76].real 	92691
scalar barabasi_100nodes_network.client[76] 	avg_time[76].real 	0
scalar barabasi_100nodes_network.client[77] 	hdistance[77].real 	1.4179189142906
scalar barabasi_100nodes_network.client[77] 	downloads[77].real 	93432
scalar barabasi_100nodes_network.client[77] 	avg_time[77].real 	0
scalar barabasi_100nodes_network.client[78] 	hdistance[78].real 	1.2312131232575
scalar barabasi_100nodes_network.client[78] 	downloads[78].real 	92538
scalar barabasi_100nodes_network.client[78] 	avg_time[78].real 	0
scalar barabasi_100nodes_network.client[79] 	hdistance[79].real 	1.182965367041
scalar barabasi_100nodes_network.client[79] 	downloads[79].real 	93668
scalar barabasi_100nodes_network.client[79] 	avg_time[79].real 	0
scalar barabasi_100nodes_network.client[80] 	hdistance[80].real 	1.6931558323045
scalar barabasi_100nodes_network.client[80] 	downloads[80].real 	93145
scalar barabasi_100nodes_network.client[80] 	avg_time[80].real 	0
scalar barabasi_100nodes_network.client[81] 	hdistance[81].real 	1.3094638784906
scalar barabasi_100nodes_network.client[81] 	downloads[81].real 	92964
scalar barabasi_100nodes_network.client[81] 	avg_time[81].real 	0
scalar barabasi_100nodes_network.client[82] 	hdistance[82].real 	1.5159530804459
scalar barabasi_100nodes_network.client[82] 	downloads[82].real 	92584
scalar barabasi_100nodes_network.client[82] 	avg_time[82].real 	0
scalar barabasi_100nodes_network.client[83] 	hdistance[83].real 	1.3396483046731
scalar barabasi_100nodes_network.client[83] 	downloads[83].real 	92637
scalar barabasi_100nodes_network.client[83] 	avg_time[83].real 	0
scalar barabasi_100nodes_network.client[84] 	hdistance[84].real 	1.440223235408
scalar barabasi_100nodes_network.client[84] 	downloads[84].real 	92996
scalar barabasi_100nodes_network.client[84] 	avg_time[84].real 	0
scalar barabasi_100nodes_network.client[85] 	hdistance[85].real 	1.4311576580958
scalar barabasi_100nodes_network.client[85] 	downloads[85].real 	92523
scalar barabasi_100nodes_network.client[85] 	avg_time[85].real 	0
scalar barabasi_100nodes_network.client[86] 	hdistance[86].real 	1.3376018123955
scalar barabasi_100nodes_network.client[86] 	downloads[86].real 	92695
scalar barabasi_100nodes_network.client[86] 	avg_time[86].real 	0
scalar barabasi_100nodes_network.client[87] 	hdistance[87].real 	1.5264332452225
scalar barabasi_100nodes_network.client[87] 	downloads[87].real 	92308
scalar barabasi_100nodes_network.client[87] 	avg_time[87].real 	0
scalar barabasi_100nodes_network.client[88] 	hdistance[88].real 	1.7342854985383
scalar barabasi_100nodes_network.client[88] 	downloads[88].real 	92701
scalar barabasi_100nodes_network.client[88] 	avg_time[88].real 	0
scalar barabasi_100nodes_network.client[89] 	hdistance[89].real 	1.5643428743987
scalar barabasi_100nodes_network.client[89] 	downloads[89].real 	92722
scalar barabasi_100nodes_network.client[89] 	avg_time[89].real 	0
scalar barabasi_100nodes_network.client[90] 	hdistance[90].real 	1.1543797386675
scalar barabasi_100nodes_network.client[90] 	downloads[90].real 	92985
scalar barabasi_100nodes_network.client[90] 	avg_time[90].real 	0
scalar barabasi_100nodes_network.client[91] 	hdistance[91].real 	1.4337756540643
scalar barabasi_100nodes_network.client[91] 	downloads[91].real 	92919
scalar barabasi_100nodes_network.client[91] 	avg_time[91].real 	0
scalar barabasi_100nodes_network.client[92] 	hdistance[92].real 	1.7853650111722
scalar barabasi_100nodes_network.client[92] 	downloads[92].real 	92641
scalar barabasi_100nodes_network.client[92] 	avg_time[92].real 	0
scalar barabasi_100nodes_network.client[93] 	hdistance[93].real 	1.3090022489404
scalar barabasi_100nodes_network.client[93] 	downloads[93].real 	92488
scalar barabasi_100nodes_network.client[93] 	avg_time[93].real 	0
scalar barabasi_100nodes_network.client[94] 	hdistance[94].real 	1.5967215241885
scalar barabasi_100nodes_network.client[94] 	downloads[94].real 	92482
scalar barabasi_100nodes_network.client[94] 	avg_time[94].real 	0
scalar barabasi_100nodes_network.client[95] 	hdistance[95].real 	1.5716296965007
scalar barabasi_100nodes_network.client[95] 	downloads[95].real 	93048
scalar barabasi_100nodes_network.client[95] 	avg_time[95].real 	0
scalar barabasi_100nodes_network.client[96] 	hdistance[96].real 	1.7549669589254
scalar barabasi_100nodes_network.client[96] 	downloads[96].real 	92612
scalar barabasi_100nodes_network.client[96] 	avg_time[96].real 	0
scalar barabasi_100nodes_network.client[97] 	hdistance[97].real 	1.5183861137732
scalar barabasi_100nodes_network.client[97] 	downloads[97].real 	92869
scalar barabasi_100nodes_network.client[97] 	avg_time[97].real 	0
scalar barabasi_100nodes_network.client[98] 	hdistance[98].real 	1.6951017625864
scalar barabasi_100nodes_network.client[98] 	downloads[98].real 	92421
scalar barabasi_100nodes_network.client[98] 	avg_time[98].real 	0
scalar barabasi_100nodes_network.client[99] 	hdistance[99].real 	1.7321750002695
scalar barabasi_100nodes_network.client[99] 	downloads[99].real 	92777
scalar barabasi_100nodes_network.client[99] 	avg_time[99].real 	0
