version 2
run General-2-20150617-11:19:30-27360
attr D fix0.1
attr F spr
attr R lru
attr a 1
attr configname General
attr datetime 20150617-11:19:30
attr experiment General
attr inifile omnetpp.ini
attr iterationvars "$net=abilene, $rep=0, $a=1, $F=spr, $ttl=1000, $D=fix0.1, $R=lru, $window=60, $variance=0.05, $mytime=180"
attr iterationvars2 "$net=abilene, $rep=0, $a=1, $F=spr, $ttl=1000, $D=fix0.1, $R=lru, $window=60, $variance=0.05, $mytime=180, $repetition=0"
attr measurement "$net=abilene, $rep=0, $a=1, $F=spr, $ttl=1000, $D=fix0.1, $R=lru, $window=60, $variance=0.05, $mytime=180"
attr mytime 180
attr net abilene
attr network networks.${net=abilene}_network
attr processid 27360
attr rep 0
attr repetition 0
attr replication #0
attr resultdir results
attr runnumber 2
attr seedset 0
attr ttl 1000
attr variance 0.05
attr window 60

scalar . 	a 	1
scalar . 	mytime 	180
scalar . 	rep 	0
scalar . 	ttl 	1000
scalar . 	variance 	0.05
scalar . 	window 	60
scalar abilene_network.content_distribution 	repo-0 	5
scalar abilene_network.content_distribution 	client-0 	8
scalar abilene_network.content_distribution 	client-1 	9
scalar abilene_network.content_distribution 	client-2 	5
scalar abilene_network.content_distribution 	client-3 	0
scalar abilene_network.content_distribution 	client-4 	1
scalar abilene_network.content_distribution 	client-5 	7
scalar abilene_network.content_distribution 	client-6 	6
scalar abilene_network.content_distribution 	client-7 	2
scalar abilene_network.content_distribution 	client-8 	4
scalar abilene_network.content_distribution 	client-9 	10
scalar abilene_network.content_distribution 	client-10 	3
scalar abilene_network.content_distribution 	repo-0_card 	1000
scalar abilene_network.content_distribution 	repo-0_price 	0
scalar abilene_network.statistics 	stabilization_time 	61.8
scalar abilene_network.statistics 	p_hit 	0.12694499883129
scalar abilene_network.statistics 	interests 	50560.909090909
scalar abilene_network.statistics 	data 	32554.909090909
scalar abilene_network.statistics 	hdistance 	2.4856033750899
scalar abilene_network.statistics 	avg_time 	0.010386122012
scalar abilene_network.statistics 	downloads 	196490
scalar abilene_network.statistics 	total_cost 	0
scalar abilene_network.statistics 	total_replicas 	1000
scalar abilene_network.statistics 	inner_hit 	0.36948445213497
scalar abilene_network.node[0].core_layer 	interests[0] 	17977
scalar abilene_network.node[0].core_layer 	data[0] 	12630
scalar abilene_network.node[0].core_layer 	repo_int[0] 	123890
scalar abilene_network.node[0].content_store 	p_hit[0] 	0.28747844467931
scalar abilene_network.node[0].content_store 	hits[0] 	5168
scalar abilene_network.node[0].content_store 	misses[0] 	12809
scalar abilene_network.node[0].content_store 	decision_yes[0] 	1246
scalar abilene_network.node[0].content_store 	decision_no[0] 	11384
scalar abilene_network.node[0].content_store 	decision_ratio[0] 	0.098653998416469
scalar abilene_network.node[1].core_layer 	interests[1] 	43342
scalar abilene_network.node[1].core_layer 	data[1] 	36620
scalar abilene_network.node[1].content_store 	p_hit[1] 	0.13974897328227
scalar abilene_network.node[1].content_store 	hits[1] 	6057
scalar abilene_network.node[1].content_store 	misses[1] 	37285
scalar abilene_network.node[1].content_store 	decision_yes[1] 	3678
scalar abilene_network.node[1].content_store 	decision_no[1] 	32942
scalar abilene_network.node[1].content_store 	decision_ratio[1] 	0.100436919716
scalar abilene_network.node[2].core_layer 	interests[2] 	54691
scalar abilene_network.node[2].core_layer 	data[2] 	47541
scalar abilene_network.node[2].content_store 	p_hit[2] 	0.12108025086394
scalar abilene_network.node[2].content_store 	hits[2] 	6622
scalar abilene_network.node[2].content_store 	misses[2] 	48069
scalar abilene_network.node[2].content_store 	decision_yes[2] 	4705
scalar abilene_network.node[2].content_store 	decision_no[2] 	42836
scalar abilene_network.node[2].content_store 	decision_ratio[2] 	0.098967207252687
scalar abilene_network.node[3].core_layer 	interests[3] 	65767
scalar abilene_network.node[3].core_layer 	data[3] 	58251
scalar abilene_network.node[3].content_store 	p_hit[3] 	0.10716620797664
scalar abilene_network.node[3].content_store 	hits[3] 	7048
scalar abilene_network.node[3].content_store 	misses[3] 	58719
scalar abilene_network.node[3].content_store 	decision_yes[3] 	5920
scalar abilene_network.node[3].content_store 	decision_no[3] 	52331
scalar abilene_network.node[3].content_store 	decision_ratio[3] 	0.101629156581
scalar abilene_network.node[4].core_layer 	interests[4] 	76382
scalar abilene_network.node[4].core_layer 	data[4] 	68426
scalar abilene_network.node[4].content_store 	p_hit[4] 	0.095794820769291
scalar abilene_network.node[4].content_store 	hits[4] 	7317
scalar abilene_network.node[4].content_store 	misses[4] 	69065
scalar abilene_network.node[4].content_store 	decision_yes[4] 	6758
scalar abilene_network.node[4].content_store 	decision_no[4] 	61668
scalar abilene_network.node[4].content_store 	decision_ratio[4] 	0.098763627860755
scalar abilene_network.node[5].core_layer 	interests[5] 	134107
scalar abilene_network.node[5].core_layer 	repo_load[5] 	123890
scalar abilene_network.node[5].core_layer 	data[5] 	0
scalar abilene_network.node[5].content_store 	p_hit[5] 	0.076185434019104
scalar abilene_network.node[5].content_store 	hits[5] 	10217
scalar abilene_network.node[5].content_store 	misses[5] 	123890
scalar abilene_network.node[5].content_store 	decision_yes[5] 	12393
scalar abilene_network.node[5].content_store 	decision_no[5] 	111497
scalar abilene_network.node[5].content_store 	decision_ratio[5] 	0.10003228670595
scalar abilene_network.node[6].core_layer 	interests[6] 	54457
scalar abilene_network.node[6].core_layer 	data[6] 	47879
scalar abilene_network.node[6].content_store 	p_hit[6] 	0.11840534733827
scalar abilene_network.node[6].content_store 	hits[6] 	6448
scalar abilene_network.node[6].content_store 	misses[6] 	48009
scalar abilene_network.node[6].content_store 	decision_yes[6] 	4827
scalar abilene_network.node[6].content_store 	decision_no[6] 	43052
scalar abilene_network.node[6].content_store 	decision_ratio[6] 	0.10081664195159
scalar abilene_network.node[7].core_layer 	interests[7] 	42849
scalar abilene_network.node[7].core_layer 	data[7] 	36450
scalar abilene_network.node[7].content_store 	p_hit[7] 	0.14247707064342
scalar abilene_network.node[7].content_store 	hits[7] 	6105
scalar abilene_network.node[7].content_store 	misses[7] 	36744
scalar abilene_network.node[7].content_store 	decision_yes[7] 	3638
scalar abilene_network.node[7].content_store 	decision_no[7] 	32812
scalar abilene_network.node[7].content_store 	decision_ratio[7] 	0.099807956104252
scalar abilene_network.node[8].core_layer 	interests[8] 	30798
scalar abilene_network.node[8].core_layer 	data[8] 	24942
scalar abilene_network.node[8].content_store 	p_hit[8] 	0.17984934086629
scalar abilene_network.node[8].content_store 	hits[8] 	5539
scalar abilene_network.node[8].content_store 	misses[8] 	25259
scalar abilene_network.node[8].content_store 	decision_yes[8] 	2473
scalar abilene_network.node[8].content_store 	decision_no[8] 	22469
scalar abilene_network.node[8].content_store 	decision_ratio[8] 	0.099150028065111
scalar abilene_network.node[9].core_layer 	interests[9] 	17941
scalar abilene_network.node[9].core_layer 	data[9] 	12654
scalar abilene_network.node[9].content_store 	p_hit[9] 	0.28454378239786
scalar abilene_network.node[9].content_store 	hits[9] 	5105
scalar abilene_network.node[9].content_store 	misses[9] 	12836
scalar abilene_network.node[9].content_store 	decision_yes[9] 	1274
scalar abilene_network.node[9].content_store 	decision_no[9] 	11380
scalar abilene_network.node[9].content_store 	decision_ratio[9] 	0.10067962699542
scalar abilene_network.node[10].core_layer 	interests[10] 	17859
scalar abilene_network.node[10].core_layer 	data[10] 	12711
scalar abilene_network.node[10].content_store 	p_hit[10] 	0.27868301696624
scalar abilene_network.node[10].content_store 	hits[10] 	4977
scalar abilene_network.node[10].content_store 	misses[10] 	12882
scalar abilene_network.node[10].content_store 	decision_yes[10] 	1202
scalar abilene_network.node[10].content_store 	decision_no[10] 	11509
scalar abilene_network.node[10].content_store 	decision_ratio[10] 	0.094563763669263
scalar abilene_network.client[0] 	hdistance[0] 	3.6753567816609
scalar abilene_network.client[0] 	downloads[0] 	17798
scalar abilene_network.client[0] 	avg_time[0] 	0.019831260345
scalar abilene_network.client[1] 	hdistance[1] 	3.2601269734255
scalar abilene_network.client[1] 	downloads[1] 	17799
scalar abilene_network.client[1] 	avg_time[1] 	0.01343928382
scalar abilene_network.client[2] 	hdistance[2] 	2.7386401696997
scalar abilene_network.client[2] 	downloads[2] 	17914
scalar abilene_network.client[2] 	avg_time[2] 	0.009870266234
scalar abilene_network.client[3] 	hdistance[3] 	2.1695430910499
scalar abilene_network.client[3] 	downloads[3] 	18078
scalar abilene_network.client[3] 	avg_time[3] 	0.006749582699
scalar abilene_network.client[4] 	hdistance[4] 	1.5515682553856
scalar abilene_network.client[4] 	downloads[4] 	17918
scalar abilene_network.client[4] 	avg_time[4] 	0.006213889578
scalar abilene_network.client[5] 	hdistance[5] 	0.84705684115929
scalar abilene_network.client[5] 	downloads[5] 	17804
scalar abilene_network.client[5] 	avg_time[5] 	0
scalar abilene_network.client[6] 	hdistance[6] 	1.516340960971
scalar abilene_network.client[6] 	downloads[6] 	17961
scalar abilene_network.client[6] 	avg_time[6] 	0.001756407254
scalar abilene_network.client[7] 	hdistance[7] 	2.100326172534
scalar abilene_network.client[7] 	downloads[7] 	17782
scalar abilene_network.client[7] 	avg_time[7] 	0.00598566442
scalar abilene_network.client[8] 	hdistance[8] 	2.6419478570237
scalar abilene_network.client[8] 	downloads[8] 	17989
scalar abilene_network.client[8] 	avg_time[8] 	0.010852201538
scalar abilene_network.client[9] 	hdistance[9] 	3.1291176304972
scalar abilene_network.client[9] 	downloads[9] 	17759
scalar abilene_network.client[9] 	avg_time[9] 	0.020161960668
scalar abilene_network.client[10] 	hdistance[10] 	3.7116123925825
scalar abilene_network.client[10] 	downloads[10] 	17688
scalar abilene_network.client[10] 	avg_time[10] 	0.019386825578
