version 2
run General-22-20140519-14:29:46-5780
attr D costprobprodcorr0.01
attr F nrr
attr R lru
attr a 1
attr configname General
attr csize 1e3
attr ctlg 1e7
attr datetime 20140519-14:29:46
attr experiment General
attr inifile omnetpp.ini
attr iterationvars "$net=one_cache_scenario_3_links, $rep=4, $priceratiovalue=2, $weights=0.333_0.333_0.334, $a=1, $ctlg=1e7, $F=nrr, $ttl=1000, $D=costprobprodcorr0.01, $xi=1, $R=lru, $csize=1e3, $pricebits=0"
attr iterationvars2 "$net=one_cache_scenario_3_links, $rep=4, $priceratiovalue=2, $weights=0.333_0.333_0.334, $a=1, $ctlg=1e7, $F=nrr, $ttl=1000, $D=costprobprodcorr0.01, $xi=1, $R=lru, $csize=1e3, $pricebits=0, $repetition=0"
attr measurement "$net=one_cache_scenario_3_links, $rep=4, $priceratiovalue=2, $weights=0.333_0.333_0.334, $a=1, $ctlg=1e7, $F=nrr, $ttl=1000, $D=costprobprodcorr0.01, $xi=1, $R=lru, $csize=1e3, $pricebits=0"
attr net one_cache_scenario_3_links
attr network networks.${net=one_cache_scenario_3_links}_network
attr pricebits 0
attr priceratiovalue 2
attr processid 5780
attr rep 4
attr repetition 0
attr replication #0
attr resultdir results
attr runnumber 22
attr seedset 4
attr ttl 1000
attr weights 0.333_0.333_0.334
attr xi 1

scalar . 	a 	1
scalar . 	csize 	1e3
scalar . 	ctlg 	1e7
scalar . 	pricebits 	0
scalar . 	priceratiovalue 	2
scalar . 	rep 	4
scalar . 	ttl 	1000
scalar . 	xi 	1
scalar one_cache_scenario_3_links_network.content_distribution 	repo-0 	4
scalar one_cache_scenario_3_links_network.content_distribution 	repo-1 	5
scalar one_cache_scenario_3_links_network.content_distribution 	repo-2 	6
scalar one_cache_scenario_3_links_network.content_distribution 	client-0 	0
scalar one_cache_scenario_3_links_network.content_distribution 	repo-0_card 	3328920
scalar one_cache_scenario_3_links_network.content_distribution 	repo-1_card 	3329516
scalar one_cache_scenario_3_links_network.content_distribution 	repo-2_card 	3341564
scalar one_cache_scenario_3_links_network.node[1].face$o[2].channel 	price[1] 	0
scalar one_cache_scenario_3_links_network.node[1].face$o[2].channel 	represented_price[1] 	0
scalar one_cache_scenario_3_links_network.node[2].face$o[2].channel 	price[2] 	0
scalar one_cache_scenario_3_links_network.node[2].face$o[2].channel 	represented_price[2] 	0
scalar one_cache_scenario_3_links_network.node[3].face$o[2].channel 	price[3] 	0
scalar one_cache_scenario_3_links_network.node[3].face$o[2].channel 	represented_price[3] 	0
scalar one_cache_scenario_3_links_network.node[4].face$o[1].channel 	price[4] 	0
scalar one_cache_scenario_3_links_network.node[4].face$o[1].channel 	represented_price[4] 	0
scalar one_cache_scenario_3_links_network.node[5].face$o[1].channel 	price[5] 	1
scalar one_cache_scenario_3_links_network.node[5].face$o[1].channel 	represented_price[5] 	1
scalar one_cache_scenario_3_links_network.node[6].face$o[1].channel 	price[6] 	2
scalar one_cache_scenario_3_links_network.node[6].face$o[1].channel 	represented_price[6] 	2
scalar one_cache_scenario_3_links_network.statistics 	p_hit 	0.14235644566215
scalar one_cache_scenario_3_links_network.statistics 	interests 	6004117.7142857
scalar one_cache_scenario_3_links_network.statistics 	data 	3432928.5714286
scalar one_cache_scenario_3_links_network.statistics 	hdistance 	1.3351520952731
scalar one_cache_scenario_3_links_network.statistics 	avg_time 	0
scalar one_cache_scenario_3_links_network.statistics 	downloads 	17998324
scalar one_cache_scenario_3_links_network.statistics 	total_cost 	9998797
scalar one_cache_scenario_3_links_network.statistics 	total_replicas 	10000000
scalar one_cache_scenario_3_links_network.statistics 	interests_sent 	17998324
scalar one_cache_scenario_3_links_network.node[0].core_layer 	interests[0] 	17998324
scalar one_cache_scenario_3_links_network.node[0].core_layer 	data[0] 	12015250
scalar one_cache_scenario_3_links_network.node[0].core_layer 	repo_int[0] 	12015250
scalar one_cache_scenario_3_links_network.node[0].content_store 	p_hit[0] 	0.33242395236356
scalar one_cache_scenario_3_links_network.node[0].content_store 	hits[0] 	5983074
scalar one_cache_scenario_3_links_network.node[0].content_store 	misses[0] 	12015250
scalar one_cache_scenario_3_links_network.node[0].content_store 	decision_yes[0] 	100056
scalar one_cache_scenario_3_links_network.node[0].content_store 	decision_no[0] 	11915194
scalar one_cache_scenario_3_links_network.node[0].content_store 	decision_ratio[0] 	0.0083274172405901
scalar one_cache_scenario_3_links_network.node[0].content_store 	correction_factor[0] 	0.00999000999001
scalar one_cache_scenario_3_links_network.node[0].content_store 	xi[0] 	1
scalar one_cache_scenario_3_links_network.node[1].core_layer 	interests[1] 	5331839
scalar one_cache_scenario_3_links_network.node[1].core_layer 	data[1] 	5331839
scalar one_cache_scenario_3_links_network.node[1].content_store 	p_hit[1] 	0
scalar one_cache_scenario_3_links_network.node[1].content_store 	hits[1] 	0
scalar one_cache_scenario_3_links_network.node[1].content_store 	misses[1] 	5331839
scalar one_cache_scenario_3_links_network.node[1].content_store 	decision_yes[1] 	0
scalar one_cache_scenario_3_links_network.node[1].content_store 	decision_no[1] 	5331839
scalar one_cache_scenario_3_links_network.node[1].content_store 	decision_ratio[1] 	0
scalar one_cache_scenario_3_links_network.node[2].core_layer 	interests[2] 	3368025
scalar one_cache_scenario_3_links_network.node[2].core_layer 	data[2] 	3368025
scalar one_cache_scenario_3_links_network.node[2].content_store 	p_hit[2] 	0
scalar one_cache_scenario_3_links_network.node[2].content_store 	hits[2] 	0
scalar one_cache_scenario_3_links_network.node[2].content_store 	misses[2] 	3368025
scalar one_cache_scenario_3_links_network.node[2].content_store 	decision_yes[2] 	0
scalar one_cache_scenario_3_links_network.node[2].content_store 	decision_no[2] 	3368025
scalar one_cache_scenario_3_links_network.node[2].content_store 	decision_ratio[2] 	0
scalar one_cache_scenario_3_links_network.node[3].core_layer 	interests[3] 	3315386
scalar one_cache_scenario_3_links_network.node[3].core_layer 	data[3] 	3315386
scalar one_cache_scenario_3_links_network.node[3].content_store 	p_hit[3] 	0
scalar one_cache_scenario_3_links_network.node[3].content_store 	hits[3] 	0
scalar one_cache_scenario_3_links_network.node[3].content_store 	misses[3] 	3315386
scalar one_cache_scenario_3_links_network.node[3].content_store 	decision_yes[3] 	0
scalar one_cache_scenario_3_links_network.node[3].content_store 	decision_no[3] 	3315386
scalar one_cache_scenario_3_links_network.node[3].content_store 	decision_ratio[3] 	0
scalar one_cache_scenario_3_links_network.node[4].core_layer 	interests[4] 	5331839
scalar one_cache_scenario_3_links_network.node[4].core_layer 	repo_load[4] 	5331839
scalar one_cache_scenario_3_links_network.node[4].core_layer 	data[4] 	0
scalar one_cache_scenario_3_links_network.node[4].content_store 	p_hit[4] 	0
scalar one_cache_scenario_3_links_network.node[4].content_store 	hits[4] 	0
scalar one_cache_scenario_3_links_network.node[4].content_store 	misses[4] 	5331839
scalar one_cache_scenario_3_links_network.node[4].content_store 	decision_yes[4] 	0
scalar one_cache_scenario_3_links_network.node[4].content_store 	decision_no[4] 	5331839
scalar one_cache_scenario_3_links_network.node[4].content_store 	decision_ratio[4] 	0
scalar one_cache_scenario_3_links_network.node[5].core_layer 	interests[5] 	3368025
scalar one_cache_scenario_3_links_network.node[5].core_layer 	repo_load[5] 	3368025
scalar one_cache_scenario_3_links_network.node[5].core_layer 	data[5] 	0
scalar one_cache_scenario_3_links_network.node[5].content_store 	p_hit[5] 	0
scalar one_cache_scenario_3_links_network.node[5].content_store 	hits[5] 	0
scalar one_cache_scenario_3_links_network.node[5].content_store 	misses[5] 	3368025
scalar one_cache_scenario_3_links_network.node[5].content_store 	decision_yes[5] 	0
scalar one_cache_scenario_3_links_network.node[5].content_store 	decision_no[5] 	3368025
scalar one_cache_scenario_3_links_network.node[5].content_store 	decision_ratio[5] 	0
scalar one_cache_scenario_3_links_network.node[6].core_layer 	interests[6] 	3315386
scalar one_cache_scenario_3_links_network.node[6].core_layer 	repo_load[6] 	3315386
scalar one_cache_scenario_3_links_network.node[6].core_layer 	data[6] 	0
scalar one_cache_scenario_3_links_network.node[6].content_store 	p_hit[6] 	0
scalar one_cache_scenario_3_links_network.node[6].content_store 	hits[6] 	0
scalar one_cache_scenario_3_links_network.node[6].content_store 	misses[6] 	3315386
scalar one_cache_scenario_3_links_network.node[6].content_store 	decision_yes[6] 	0
scalar one_cache_scenario_3_links_network.node[6].content_store 	decision_no[6] 	3315386
scalar one_cache_scenario_3_links_network.node[6].content_store 	decision_ratio[6] 	0
scalar one_cache_scenario_3_links_network.client[0] 	hdistance[0] 	1.3351520952731
scalar one_cache_scenario_3_links_network.client[0] 	downloads[0] 	17998324
scalar one_cache_scenario_3_links_network.client[0] 	avg_time[0] 	0
scalar one_cache_scenario_3_links_network.client[0] 	interests_sent[0] 	17998324
