version 2
run General-0-20150902-20:49:48-2313
attr C 1e3
attr D fix1
attr F spr
attr R partitionedn
attr a 1
attr brates 0.3_0.7_1.5_2.5_3.5
attr configname General
attr ctlg 1e5
attr datetime 20150902-20:49:48
attr experiment General
attr inifile omnetpp.ini
attr iterationvars "$net=abilene_nodelay, $rep=0, $lambda=100, $a=1, $ctlg=1e5, $brates=0.3_0.7_1.5_2.5_3.5, $F=spr, $ttl=1000, $D=fix1, $R=partitionedn, $proactiveprob=0.1, $C=1e3, $window=60, $variance=0.05, $mytime=180000"
attr iterationvars2 "$net=abilene_nodelay, $rep=0, $lambda=100, $a=1, $ctlg=1e5, $brates=0.3_0.7_1.5_2.5_3.5, $F=spr, $ttl=1000, $D=fix1, $R=partitionedn, $proactiveprob=0.1, $C=1e3, $window=60, $variance=0.05, $mytime=180000, $repetition=0"
attr lambda 100
attr measurement "$net=abilene_nodelay, $rep=0, $lambda=100, $a=1, $ctlg=1e5, $brates=0.3_0.7_1.5_2.5_3.5, $F=spr, $ttl=1000, $D=fix1, $R=partitionedn, $proactiveprob=0.1, $C=1e3, $window=60, $variance=0.05, $mytime=180000"
attr mytime 180000
attr net abilene_nodelay
attr network networks.${net=abilene_nodelay}_network
attr proactiveprob 0.1
attr processid 2313
attr rep 0
attr repetition 0
attr replication #0
attr resultdir results
attr runnumber 0
attr seedset 0
attr ttl 1000
attr variance 0.05
attr window 60

scalar . 	C 	1e3
scalar . 	a 	1
scalar . 	ctlg 	1e5
scalar . 	lambda 	100
scalar . 	mytime 	180000
scalar . 	proactiveprob 	0.1
scalar . 	rep 	0
scalar . 	ttl 	1000
scalar . 	variance 	0.05
scalar . 	window 	60
scalar abilene_nodelay_network.content_distribution 	repo-0 	5
scalar abilene_nodelay_network.content_distribution 	repo-1 	8
scalar abilene_nodelay_network.content_distribution 	repo-2 	9
scalar abilene_nodelay_network.content_distribution 	repo-3 	0
scalar abilene_nodelay_network.content_distribution 	repo-4 	1
scalar abilene_nodelay_network.content_distribution 	repo-5 	7
scalar abilene_nodelay_network.content_distribution 	repo-6 	6
scalar abilene_nodelay_network.content_distribution 	repo-7 	2
scalar abilene_nodelay_network.content_distribution 	repo-8 	4
scalar abilene_nodelay_network.content_distribution 	repo-9 	10
scalar abilene_nodelay_network.content_distribution 	repo-10 	3
scalar abilene_nodelay_network.content_distribution 	client-0 	10
scalar abilene_nodelay_network.content_distribution 	client-1 	9
scalar abilene_nodelay_network.content_distribution 	client-2 	8
scalar abilene_nodelay_network.content_distribution 	client-3 	7
scalar abilene_nodelay_network.content_distribution 	client-4 	3
scalar abilene_nodelay_network.content_distribution 	client-5 	6
scalar abilene_nodelay_network.content_distribution 	client-6 	5
scalar abilene_nodelay_network.content_distribution 	client-7 	1
scalar abilene_nodelay_network.content_distribution 	client-8 	4
scalar abilene_nodelay_network.content_distribution 	client-9 	0
scalar abilene_nodelay_network.content_distribution 	client-10 	2
scalar abilene_nodelay_network.content_distribution 	repo-0_card 	9071
scalar abilene_nodelay_network.content_distribution 	repo-0_price 	0
scalar abilene_nodelay_network.content_distribution 	repo-1_card 	8986
scalar abilene_nodelay_network.content_distribution 	repo-1_price 	0
scalar abilene_nodelay_network.content_distribution 	repo-2_card 	9050
scalar abilene_nodelay_network.content_distribution 	repo-2_price 	0
scalar abilene_nodelay_network.content_distribution 	repo-3_card 	8986
scalar abilene_nodelay_network.content_distribution 	repo-3_price 	0
scalar abilene_nodelay_network.content_distribution 	repo-4_card 	9064
scalar abilene_nodelay_network.content_distribution 	repo-4_price 	0
scalar abilene_nodelay_network.content_distribution 	repo-5_card 	9170
scalar abilene_nodelay_network.content_distribution 	repo-5_price 	0
scalar abilene_nodelay_network.content_distribution 	repo-6_card 	9151
scalar abilene_nodelay_network.content_distribution 	repo-6_price 	0
scalar abilene_nodelay_network.content_distribution 	repo-7_card 	9112
scalar abilene_nodelay_network.content_distribution 	repo-7_price 	0
scalar abilene_nodelay_network.content_distribution 	repo-8_card 	9132
scalar abilene_nodelay_network.content_distribution 	repo-8_price 	0
scalar abilene_nodelay_network.content_distribution 	repo-9_card 	9101
scalar abilene_nodelay_network.content_distribution 	repo-9_price 	0
scalar abilene_nodelay_network.content_distribution 	repo-10_card 	9177
scalar abilene_nodelay_network.content_distribution 	repo-10_price 	0
scalar abilene_nodelay_network.statistics 	stabilization_time 	36060
scalar abilene_nodelay_network.statistics 	p_hit 	0.31619030449621
scalar abilene_nodelay_network.statistics 	interests 	32952967.181818
scalar abilene_nodelay_network.statistics 	data 	14694475.909091
scalar abilene_nodelay_network.statistics 	hdistance 	1.2168292388229
scalar abilene_nodelay_network.statistics 	avg_time 	0
scalar abilene_nodelay_network.statistics 	downloads 	197980075
scalar abilene_nodelay_network.statistics 	total_cost 	0
scalar abilene_nodelay_network.statistics 	total_replicas 	100000
scalar abilene_nodelay_network.statistics 	"representations_downloaded 0.45029:0.0389782:0.0377063:0.0409116:0.432114:" 	0
scalar abilene_nodelay_network.statistics 	"slots_per_representation 100:233:500:833:1167:" 	0
scalar abilene_nodelay_network.statistics 	inner_hit 	0.56445158433241
scalar abilene_nodelay_network.statistics 	execution_time 	8574
scalar abilene_nodelay_network.node[0].core_layer 	interests[0] 	24007167
scalar abilene_nodelay_network.node[0].core_layer 	repo_load[0] 	7076462
scalar abilene_nodelay_network.node[0].core_layer 	data[0] 	6323648
scalar abilene_nodelay_network.node[0].core_layer 	slots_sent[face$o[1]->client[0]] 	11698341932
scalar abilene_nodelay_network.node[0].core_layer 	slots_sent[face$o[2]->node[1]] 	524181184
scalar abilene_nodelay_network.node[0].core_layer 	slots_sent[face$o[3]->node[10]] 	158327095
scalar abilene_nodelay_network.node[0].content_store 	p_hit[0] 	0.44182876721772
scalar abilene_nodelay_network.node[0].content_store 	hits[0] 	10607057
scalar abilene_nodelay_network.node[0].content_store 	misses[0] 	13400110
scalar abilene_nodelay_network.node[0].content_store 	decision_yes[0] 	6323648
scalar abilene_nodelay_network.node[0].content_store 	decision_no[0] 	7076462
scalar abilene_nodelay_network.node[0].content_store 	decision_ratio[0] 	0.47191015596141
scalar abilene_nodelay_network.node[0].content_store 	"representation_breakdown[0] 0x7fff24811c78:0x7fff24811c78:0x7fff24811c78:0x7fff24811c78:0x7fff24811c78:" 	0
scalar abilene_nodelay_network.node[0].proactive_component 	hdistance[0].proactive_component 	2.6448606281686
scalar abilene_nodelay_network.node[0].proactive_component 	downloads[0].proactive_component 	263719
scalar abilene_nodelay_network.node[0].proactive_component 	avg_time[0].proactive_component 	0
scalar abilene_nodelay_network.node[1].core_layer 	interests[1] 	37504427
scalar abilene_nodelay_network.node[1].core_layer 	repo_load[1] 	8182113
scalar abilene_nodelay_network.node[1].core_layer 	data[1] 	19177872
scalar abilene_nodelay_network.node[1].core_layer 	slots_sent[face$o[1]->client[1]] 	10366828074
scalar abilene_nodelay_network.node[1].core_layer 	slots_sent[face$o[2]->node[0]] 	708134346
scalar abilene_nodelay_network.node[1].core_layer 	slots_sent[face$o[3]->node[10]] 	521287918
scalar abilene_nodelay_network.node[1].core_layer 	slots_sent[face$o[4]->node[2]] 	1301005254
scalar abilene_nodelay_network.node[1].content_store 	p_hit[1] 	0.27048652149785
scalar abilene_nodelay_network.node[1].content_store 	hits[1] 	10144442
scalar abilene_nodelay_network.node[1].content_store 	misses[1] 	27359985
scalar abilene_nodelay_network.node[1].content_store 	decision_yes[1] 	19177872
scalar abilene_nodelay_network.node[1].content_store 	decision_no[1] 	8182113
scalar abilene_nodelay_network.node[1].content_store 	decision_ratio[1] 	0.70094599832566
scalar abilene_nodelay_network.node[1].content_store 	"representation_breakdown[1] 0x7fff24811c78:0x7fff24811c78:0x7fff24811c78:0x7fff24811c78:0x7fff24811c78:" 	0
scalar abilene_nodelay_network.node[1].proactive_component 	hdistance[1].proactive_component 	2.4153577065825
scalar abilene_nodelay_network.node[1].proactive_component 	downloads[1].proactive_component 	351615
scalar abilene_nodelay_network.node[1].proactive_component 	avg_time[1].proactive_component 	0
scalar abilene_nodelay_network.node[2].core_layer 	interests[2] 	47681946
scalar abilene_nodelay_network.node[2].core_layer 	repo_load[2] 	9050598
scalar abilene_nodelay_network.node[2].core_layer 	data[2] 	28592928
scalar abilene_nodelay_network.node[2].core_layer 	slots_sent[face$o[1]->client[2]] 	10155823931
scalar abilene_nodelay_network.node[2].core_layer 	slots_sent[face$o[2]->node[1]] 	1454150930
scalar abilene_nodelay_network.node[2].core_layer 	slots_sent[face$o[3]->node[3]] 	1711614608
scalar abilene_nodelay_network.node[2].core_layer 	slots_sent[face$o[4]->node[8]] 	730782308
scalar abilene_nodelay_network.node[2].content_store 	p_hit[2] 	0.21052873974565
scalar abilene_nodelay_network.node[2].content_store 	hits[2] 	10038420
scalar abilene_nodelay_network.node[2].content_store 	misses[2] 	37643526
scalar abilene_nodelay_network.node[2].content_store 	decision_yes[2] 	28592928
scalar abilene_nodelay_network.node[2].content_store 	decision_no[2] 	9050598
scalar abilene_nodelay_network.node[2].content_store 	decision_ratio[2] 	0.75957092861067
scalar abilene_nodelay_network.node[2].content_store 	"representation_breakdown[2] 0x7fff24811c78:0x7fff24811c78:0x7fff24811c78:0x7fff24811c78:0x7fff24811c78:" 	0
scalar abilene_nodelay_network.node[2].proactive_component 	hdistance[2].proactive_component 	2.3804472027743
scalar abilene_nodelay_network.node[2].proactive_component 	downloads[2].proactive_component 	350937
scalar abilene_nodelay_network.node[2].proactive_component 	avg_time[2].proactive_component 	0
scalar abilene_nodelay_network.node[3].core_layer 	interests[3] 	45246218
scalar abilene_nodelay_network.node[3].core_layer 	repo_load[3] 	8050427
scalar abilene_nodelay_network.node[3].core_layer 	data[3] 	26387478
scalar abilene_nodelay_network.node[3].core_layer 	slots_sent[face$o[1]->client[3]] 	10790246972
scalar abilene_nodelay_network.node[3].core_layer 	slots_sent[face$o[2]->node[2]] 	1694293555
scalar abilene_nodelay_network.node[3].core_layer 	slots_sent[face$o[3]->node[4]] 	1088169483
scalar abilene_nodelay_network.node[3].core_layer 	slots_sent[face$o[4]->node[7]] 	793504083
scalar abilene_nodelay_network.node[3].content_store 	p_hit[3] 	0.23887771128186
scalar abilene_nodelay_network.node[3].content_store 	hits[3] 	10808313
scalar abilene_nodelay_network.node[3].content_store 	misses[3] 	34437905
scalar abilene_nodelay_network.node[3].content_store 	decision_yes[3] 	26387478
scalar abilene_nodelay_network.node[3].content_store 	decision_no[3] 	8050427
scalar abilene_nodelay_network.node[3].content_store 	decision_ratio[3] 	0.76623354411367
scalar abilene_nodelay_network.node[3].content_store 	"representation_breakdown[3] 0x7fff24811c78:0x7fff24811c78:0x7fff24811c78:0x7fff24811c78:0x7fff24811c78:" 	0
scalar abilene_nodelay_network.node[3].proactive_component 	hdistance[3].proactive_component 	2.3674763163547
scalar abilene_nodelay_network.node[3].proactive_component 	downloads[3].proactive_component 	377159
scalar abilene_nodelay_network.node[3].proactive_component 	avg_time[3].proactive_component 	0
scalar abilene_nodelay_network.node[4].core_layer 	interests[4] 	30064230
scalar abilene_nodelay_network.node[4].core_layer 	repo_load[4] 	7224460
scalar abilene_nodelay_network.node[4].core_layer 	data[4] 	12101155
scalar abilene_nodelay_network.node[4].core_layer 	slots_sent[face$o[1]->client[4]] 	11432873434
scalar abilene_nodelay_network.node[4].core_layer 	slots_sent[face$o[2]->node[3]] 	925078111
scalar abilene_nodelay_network.node[4].core_layer 	slots_sent[face$o[3]->node[5]] 	589322900
scalar abilene_nodelay_network.node[4].content_store 	p_hit[4] 	0.35718909148846
scalar abilene_nodelay_network.node[4].content_store 	hits[4] 	10738615
scalar abilene_nodelay_network.node[4].content_store 	misses[4] 	19325615
scalar abilene_nodelay_network.node[4].content_store 	decision_yes[4] 	12101155
scalar abilene_nodelay_network.node[4].content_store 	decision_no[4] 	7224460
scalar abilene_nodelay_network.node[4].content_store 	decision_ratio[4] 	0.62617179323918
scalar abilene_nodelay_network.node[4].content_store 	"representation_breakdown[4] 0x7fff24811c78:0x7fff24811c78:0x7fff24811c78:0x7fff24811c78:0x7fff24811c78:" 	0
scalar abilene_nodelay_network.node[4].proactive_component 	hdistance[4].proactive_component 	2.4786980231765
scalar abilene_nodelay_network.node[4].proactive_component 	downloads[4].proactive_component 	305136
scalar abilene_nodelay_network.node[4].proactive_component 	avg_time[4].proactive_component 	0
scalar abilene_nodelay_network.node[5].core_layer 	interests[5] 	25369385
scalar abilene_nodelay_network.node[5].core_layer 	repo_load[5] 	8560710
scalar abilene_nodelay_network.node[5].core_layer 	data[5] 	7575514
scalar abilene_nodelay_network.node[5].core_layer 	slots_sent[face$o[1]->client[5]] 	10195635756
scalar abilene_nodelay_network.node[5].core_layer 	slots_sent[face$o[2]->node[4]] 	502509667
scalar abilene_nodelay_network.node[5].core_layer 	slots_sent[face$o[3]->node[6]] 	373518910
scalar abilene_nodelay_network.node[5].content_store 	p_hit[5] 	0.36394894870333
scalar abilene_nodelay_network.node[5].content_store 	hits[5] 	9233161
scalar abilene_nodelay_network.node[5].content_store 	misses[5] 	16136224
scalar abilene_nodelay_network.node[5].content_store 	decision_yes[5] 	7575514
scalar abilene_nodelay_network.node[5].content_store 	decision_no[5] 	8560710
scalar abilene_nodelay_network.node[5].content_store 	decision_ratio[5] 	0.46947253582994
scalar abilene_nodelay_network.node[5].content_store 	"representation_breakdown[5] 0x7fff24811c78:0x7fff24811c78:0x7fff24811c78:0x7fff24811c78:0x7fff24811c78:" 	0
scalar abilene_nodelay_network.node[5].proactive_component 	hdistance[5].proactive_component 	2.6443329602902
scalar abilene_nodelay_network.node[5].proactive_component 	downloads[5].proactive_component 	259130
scalar abilene_nodelay_network.node[5].proactive_component 	avg_time[5].proactive_component 	0
scalar abilene_nodelay_network.node[6].core_layer 	interests[6] 	27684782
scalar abilene_nodelay_network.node[6].core_layer 	repo_load[6] 	7083925
scalar abilene_nodelay_network.node[6].core_layer 	data[6] 	9925613
scalar abilene_nodelay_network.node[6].core_layer 	slots_sent[face$o[1]->client[6]] 	11587806778
scalar abilene_nodelay_network.node[6].core_layer 	slots_sent[face$o[2]->node[5]] 	416460834
scalar abilene_nodelay_network.node[6].core_layer 	slots_sent[face$o[3]->node[7]] 	770733632
scalar abilene_nodelay_network.node[6].content_store 	p_hit[6] 	0.38559971322873
scalar abilene_nodelay_network.node[6].content_store 	hits[6] 	10675244
scalar abilene_nodelay_network.node[6].content_store 	misses[6] 	17009538
scalar abilene_nodelay_network.node[6].content_store 	decision_yes[6] 	9925613
scalar abilene_nodelay_network.node[6].content_store 	decision_no[6] 	7083925
scalar abilene_nodelay_network.node[6].content_store 	decision_ratio[6] 	0.58353219234996
scalar abilene_nodelay_network.node[6].content_store 	"representation_breakdown[6] 0x7fff24811c78:0x7fff24811c78:0x7fff24811c78:0x7fff24811c78:0x7fff24811c78:" 	0
scalar abilene_nodelay_network.node[6].proactive_component 	hdistance[6].proactive_component 	2.5478883779052
scalar abilene_nodelay_network.node[6].proactive_component 	downloads[6].proactive_component 	275286
scalar abilene_nodelay_network.node[6].proactive_component 	avg_time[6].proactive_component 	0
scalar abilene_nodelay_network.node[7].core_layer 	interests[7] 	35768345
scalar abilene_nodelay_network.node[7].core_layer 	repo_load[7] 	8027247
scalar abilene_nodelay_network.node[7].core_layer 	data[7] 	16819092
scalar abilene_nodelay_network.node[7].core_layer 	slots_sent[face$o[1]->client[7]] 	11321510343
scalar abilene_nodelay_network.node[7].core_layer 	slots_sent[face$o[2]->node[3]] 	711613830
scalar abilene_nodelay_network.node[7].core_layer 	slots_sent[face$o[3]->node[6]] 	923898609
scalar abilene_nodelay_network.node[7].core_layer 	slots_sent[face$o[4]->node[8]] 	645288632
scalar abilene_nodelay_network.node[7].content_store 	p_hit[7] 	0.30535396591595
scalar abilene_nodelay_network.node[7].content_store 	hits[7] 	10922006
scalar abilene_nodelay_network.node[7].content_store 	misses[7] 	24846339
scalar abilene_nodelay_network.node[7].content_store 	decision_yes[7] 	16819092
scalar abilene_nodelay_network.node[7].content_store 	decision_no[7] 	8027247
scalar abilene_nodelay_network.node[7].content_store 	decision_ratio[7] 	0.67692435493213
scalar abilene_nodelay_network.node[7].content_store 	"representation_breakdown[7] 0x7fff24811c78:0x7fff24811c78:0x7fff24811c78:0x7fff24811c78:0x7fff24811c78:" 	0
scalar abilene_nodelay_network.node[7].proactive_component 	hdistance[7].proactive_component 	2.2851006520282
scalar abilene_nodelay_network.node[7].proactive_component 	downloads[7].proactive_component 	337102
scalar abilene_nodelay_network.node[7].proactive_component 	avg_time[7].proactive_component 	0
scalar abilene_nodelay_network.node[8].core_layer 	interests[8] 	34255610
scalar abilene_nodelay_network.node[8].core_layer 	repo_load[8] 	7401795
scalar abilene_nodelay_network.node[8].core_layer 	data[8] 	15909197
scalar abilene_nodelay_network.node[8].core_layer 	slots_sent[face$o[1]->client[8]] 	11310920159
scalar abilene_nodelay_network.node[8].core_layer 	slots_sent[face$o[2]->node[2]] 	626288370
scalar abilene_nodelay_network.node[8].core_layer 	slots_sent[face$o[3]->node[7]] 	619845633
scalar abilene_nodelay_network.node[8].core_layer 	slots_sent[face$o[4]->node[9]] 	829724389
scalar abilene_nodelay_network.node[8].content_store 	p_hit[8] 	0.3194985580464
scalar abilene_nodelay_network.node[8].content_store 	hits[8] 	10944618
scalar abilene_nodelay_network.node[8].content_store 	misses[8] 	23310992
scalar abilene_nodelay_network.node[8].content_store 	decision_yes[8] 	15909197
scalar abilene_nodelay_network.node[8].content_store 	decision_no[8] 	7401795
scalar abilene_nodelay_network.node[8].content_store 	decision_ratio[8] 	0.68247618977348
scalar abilene_nodelay_network.node[8].content_store 	"representation_breakdown[8] 0x7fff24811c78:0x7fff24811c78:0x7fff24811c78:0x7fff24811c78:0x7fff24811c78:" 	0
scalar abilene_nodelay_network.node[8].proactive_component 	hdistance[8].proactive_component 	2.2151063436713
scalar abilene_nodelay_network.node[8].proactive_component 	downloads[8].proactive_component 	346424
scalar abilene_nodelay_network.node[8].proactive_component 	avg_time[8].proactive_component 	0
scalar abilene_nodelay_network.node[9].core_layer 	interests[9] 	27729386
scalar abilene_nodelay_network.node[9].core_layer 	repo_load[9] 	7365395
scalar abilene_nodelay_network.node[9].core_layer 	data[9] 	9926465
scalar abilene_nodelay_network.node[9].core_layer 	slots_sent[face$o[1]->client[9]] 	11305387723
scalar abilene_nodelay_network.node[9].core_layer 	slots_sent[face$o[2]->node[10]] 	487583508
scalar abilene_nodelay_network.node[9].core_layer 	slots_sent[face$o[3]->node[8]] 	706498923
scalar abilene_nodelay_network.node[9].content_store 	p_hit[9] 	0.37640667557515
scalar abilene_nodelay_network.node[9].content_store 	hits[9] 	10437526
scalar abilene_nodelay_network.node[9].content_store 	misses[9] 	17291860
scalar abilene_nodelay_network.node[9].content_store 	decision_yes[9] 	9926465
scalar abilene_nodelay_network.node[9].content_store 	decision_no[9] 	7365395
scalar abilene_nodelay_network.node[9].content_store 	decision_ratio[9] 	0.574054208165
scalar abilene_nodelay_network.node[9].content_store 	"representation_breakdown[9] 0x7fff24811c78:0x7fff24811c78:0x7fff24811c78:0x7fff24811c78:0x7fff24811c78:" 	0
scalar abilene_nodelay_network.node[9].proactive_component 	hdistance[9].proactive_component 	2.460395576228
scalar abilene_nodelay_network.node[9].proactive_component 	downloads[9].proactive_component 	277772
scalar abilene_nodelay_network.node[9].proactive_component 	avg_time[9].proactive_component 	0
scalar abilene_nodelay_network.node[10].core_layer 	interests[10] 	27171143
scalar abilene_nodelay_network.node[10].core_layer 	repo_load[10] 	8206776
scalar abilene_nodelay_network.node[10].core_layer 	data[10] 	8900273
scalar abilene_nodelay_network.node[10].core_layer 	slots_sent[face$o[1]->client[10]] 	10863956873
scalar abilene_nodelay_network.node[10].core_layer 	slots_sent[face$o[2]->node[0]] 	176615128
scalar abilene_nodelay_network.node[10].core_layer 	slots_sent[face$o[3]->node[1]] 	469430397
scalar abilene_nodelay_network.node[10].core_layer 	slots_sent[face$o[4]->node[9]] 	450646690
scalar abilene_nodelay_network.node[10].content_store 	p_hit[10] 	0.37039641652175
scalar abilene_nodelay_network.node[10].content_store 	hits[10] 	10064094
scalar abilene_nodelay_network.node[10].content_store 	misses[10] 	17107049
scalar abilene_nodelay_network.node[10].content_store 	decision_yes[10] 	8900273
scalar abilene_nodelay_network.node[10].content_store 	decision_no[10] 	8206776
scalar abilene_nodelay_network.node[10].content_store 	decision_ratio[10] 	0.52026933458833
scalar abilene_nodelay_network.node[10].content_store 	"representation_breakdown[10] 0x7fff24811c78:0x7fff24811c78:0x7fff24811c78:0x7fff24811c78:0x7fff24811c78:" 	0
scalar abilene_nodelay_network.node[10].proactive_component 	hdistance[10].proactive_component 	2.4337468046766
scalar abilene_nodelay_network.node[10].proactive_component 	downloads[10].proactive_component 	286356
scalar abilene_nodelay_network.node[10].proactive_component 	avg_time[10].proactive_component 	0
scalar abilene_nodelay_network.client[0] 	hdistance[0].real 	1.3228938361701
scalar abilene_nodelay_network.client[0] 	downloads[0].real 	17997674
scalar abilene_nodelay_network.client[0] 	avg_time[0].real 	0
scalar abilene_nodelay_network.client[1] 	hdistance[1].real 	1.2305668524148
scalar abilene_nodelay_network.client[1] 	downloads[1].real 	17997136
scalar abilene_nodelay_network.client[1] 	avg_time[1].real 	0
scalar abilene_nodelay_network.client[2] 	hdistance[2].real 	1.1406565728553
scalar abilene_nodelay_network.client[2] 	downloads[2].real 	17996571
scalar abilene_nodelay_network.client[2] 	avg_time[2].real 	0
scalar abilene_nodelay_network.client[3] 	hdistance[3].real 	1.1295867917906
scalar abilene_nodelay_network.client[3] 	downloads[3].real 	17999836
scalar abilene_nodelay_network.client[3] 	avg_time[3].real 	0
scalar abilene_nodelay_network.client[4] 	hdistance[4].real 	1.2513744514388
scalar abilene_nodelay_network.client[4] 	downloads[4].real 	18003910
scalar abilene_nodelay_network.client[4] 	avg_time[4].real 	0
scalar abilene_nodelay_network.client[5] 	hdistance[5].real 	1.408666230213
scalar abilene_nodelay_network.client[5] 	downloads[5].real 	17998091
scalar abilene_nodelay_network.client[5] 	avg_time[5].real 	0
scalar abilene_nodelay_network.client[6] 	hdistance[6].real 	1.2602280756328
scalar abilene_nodelay_network.client[6] 	downloads[6].real 	18002800
scalar abilene_nodelay_network.client[6] 	avg_time[6].real 	0
scalar abilene_nodelay_network.client[7] 	hdistance[7].real 	1.1103443336253
scalar abilene_nodelay_network.client[7] 	downloads[7].real 	17996674
scalar abilene_nodelay_network.client[7] 	avg_time[7].real 	0
scalar abilene_nodelay_network.client[8] 	hdistance[8].real 	1.0773838017346
scalar abilene_nodelay_network.client[8] 	downloads[8].real 	17994890
scalar abilene_nodelay_network.client[8] 	avg_time[8].real 	0
scalar abilene_nodelay_network.client[9] 	hdistance[9].real 	1.1970711628564
scalar abilene_nodelay_network.client[9] 	downloads[9].real 	17998884
scalar abilene_nodelay_network.client[9] 	avg_time[9].real 	0
scalar abilene_nodelay_network.client[10] 	hdistance[10].real 	1.2563495183207
scalar abilene_nodelay_network.client[10] 	downloads[10].real 	17993609
scalar abilene_nodelay_network.client[10] 	avg_time[10].real 	0
