version 2
run General-48-20140519-15:26:43-5997
attr D costprobprodcorr0.01
attr F nrr
attr R lru
attr a 1
attr configname General
attr csize 1e3
attr ctlg 1e7
attr datetime 20140519-15:26:43
attr experiment General
attr inifile omnetpp.ini
attr iterationvars "$net=one_cache_scenario_3_links, $rep=7, $priceratiovalue=2.5, $weights=0.333_0.333_0.334, $a=1, $ctlg=1e7, $F=nrr, $ttl=1000, $D=costprobprodcorr0.01, $xi=1, $R=lru, $csize=1e3, $pricebits=0"
attr iterationvars2 "$net=one_cache_scenario_3_links, $rep=7, $priceratiovalue=2.5, $weights=0.333_0.333_0.334, $a=1, $ctlg=1e7, $F=nrr, $ttl=1000, $D=costprobprodcorr0.01, $xi=1, $R=lru, $csize=1e3, $pricebits=0, $repetition=0"
attr measurement "$net=one_cache_scenario_3_links, $rep=7, $priceratiovalue=2.5, $weights=0.333_0.333_0.334, $a=1, $ctlg=1e7, $F=nrr, $ttl=1000, $D=costprobprodcorr0.01, $xi=1, $R=lru, $csize=1e3, $pricebits=0"
attr net one_cache_scenario_3_links
attr network networks.${net=one_cache_scenario_3_links}_network
attr pricebits 0
attr priceratiovalue 2.5
attr processid 5997
attr rep 7
attr repetition 0
attr replication #0
attr resultdir results
attr runnumber 48
attr seedset 7
attr ttl 1000
attr weights 0.333_0.333_0.334
attr xi 1

scalar . 	a 	1
scalar . 	csize 	1e3
scalar . 	ctlg 	1e7
scalar . 	pricebits 	0
scalar . 	priceratiovalue 	2.5
scalar . 	rep 	7
scalar . 	ttl 	1000
scalar . 	xi 	1
scalar one_cache_scenario_3_links_network.content_distribution 	repo-0 	4
scalar one_cache_scenario_3_links_network.content_distribution 	repo-1 	5
scalar one_cache_scenario_3_links_network.content_distribution 	repo-2 	6
scalar one_cache_scenario_3_links_network.content_distribution 	client-0 	0
scalar one_cache_scenario_3_links_network.content_distribution 	repo-0_card 	3327202
scalar one_cache_scenario_3_links_network.content_distribution 	repo-1_card 	3330624
scalar one_cache_scenario_3_links_network.content_distribution 	repo-2_card 	3342174
scalar one_cache_scenario_3_links_network.node[1].face$o[2].channel 	price[1] 	0
scalar one_cache_scenario_3_links_network.node[1].face$o[2].channel 	represented_price[1] 	0
scalar one_cache_scenario_3_links_network.node[2].face$o[2].channel 	price[2] 	0
scalar one_cache_scenario_3_links_network.node[2].face$o[2].channel 	represented_price[2] 	0
scalar one_cache_scenario_3_links_network.node[3].face$o[2].channel 	price[3] 	0
scalar one_cache_scenario_3_links_network.node[3].face$o[2].channel 	represented_price[3] 	0
scalar one_cache_scenario_3_links_network.node[4].face$o[1].channel 	price[4] 	0
scalar one_cache_scenario_3_links_network.node[4].face$o[1].channel 	represented_price[4] 	0
scalar one_cache_scenario_3_links_network.node[5].face$o[1].channel 	price[5] 	1
scalar one_cache_scenario_3_links_network.node[5].face$o[1].channel 	represented_price[5] 	1
scalar one_cache_scenario_3_links_network.node[6].face$o[1].channel 	price[6] 	2
scalar one_cache_scenario_3_links_network.node[6].face$o[1].channel 	represented_price[6] 	2
scalar one_cache_scenario_3_links_network.statistics 	p_hit 	0.11732732792061
scalar one_cache_scenario_3_links_network.statistics 	interests 	6247506.8571429
scalar one_cache_scenario_3_links_network.statistics 	data 	3676335.7142857
scalar one_cache_scenario_3_links_network.statistics 	hdistance 	1.4298292529061
scalar one_cache_scenario_3_links_network.statistics 	avg_time 	0
scalar one_cache_scenario_3_links_network.statistics 	downloads 	17998198
scalar one_cache_scenario_3_links_network.statistics 	total_cost 	10022806
scalar one_cache_scenario_3_links_network.statistics 	total_replicas 	10000000
scalar one_cache_scenario_3_links_network.statistics 	interests_sent 	17998198
scalar one_cache_scenario_3_links_network.node[0].core_layer 	interests[0] 	17998198
scalar one_cache_scenario_3_links_network.node[0].core_layer 	data[0] 	12867175
scalar one_cache_scenario_3_links_network.node[0].core_layer 	repo_int[0] 	12867175
scalar one_cache_scenario_3_links_network.node[0].content_store 	p_hit[0] 	0.28508537354684
scalar one_cache_scenario_3_links_network.node[0].content_store 	hits[0] 	5131023
scalar one_cache_scenario_3_links_network.node[0].content_store 	misses[0] 	12867175
scalar one_cache_scenario_3_links_network.node[0].content_store 	decision_yes[0] 	99525
scalar one_cache_scenario_3_links_network.node[0].content_store 	decision_no[0] 	12767650
scalar one_cache_scenario_3_links_network.node[0].content_store 	decision_ratio[0] 	0.0077347980423053
scalar one_cache_scenario_3_links_network.node[0].content_store 	correction_factor[0] 	0.00999000999001
scalar one_cache_scenario_3_links_network.node[0].content_store 	xi[0] 	1
scalar one_cache_scenario_3_links_network.node[1].core_layer 	interests[1] 	6162032
scalar one_cache_scenario_3_links_network.node[1].core_layer 	data[1] 	6162032
scalar one_cache_scenario_3_links_network.node[1].content_store 	p_hit[1] 	0
scalar one_cache_scenario_3_links_network.node[1].content_store 	hits[1] 	0
scalar one_cache_scenario_3_links_network.node[1].content_store 	misses[1] 	6162032
scalar one_cache_scenario_3_links_network.node[1].content_store 	decision_yes[1] 	0
scalar one_cache_scenario_3_links_network.node[1].content_store 	decision_no[1] 	6162032
scalar one_cache_scenario_3_links_network.node[1].content_store 	decision_ratio[1] 	0
scalar one_cache_scenario_3_links_network.node[2].core_layer 	interests[2] 	3387480
scalar one_cache_scenario_3_links_network.node[2].core_layer 	data[2] 	3387480
scalar one_cache_scenario_3_links_network.node[2].content_store 	p_hit[2] 	0
scalar one_cache_scenario_3_links_network.node[2].content_store 	hits[2] 	0
scalar one_cache_scenario_3_links_network.node[2].content_store 	misses[2] 	3387480
scalar one_cache_scenario_3_links_network.node[2].content_store 	decision_yes[2] 	0
scalar one_cache_scenario_3_links_network.node[2].content_store 	decision_no[2] 	3387480
scalar one_cache_scenario_3_links_network.node[2].content_store 	decision_ratio[2] 	0
scalar one_cache_scenario_3_links_network.node[3].core_layer 	interests[3] 	3317663
scalar one_cache_scenario_3_links_network.node[3].core_layer 	data[3] 	3317663
scalar one_cache_scenario_3_links_network.node[3].content_store 	p_hit[3] 	0
scalar one_cache_scenario_3_links_network.node[3].content_store 	hits[3] 	0
scalar one_cache_scenario_3_links_network.node[3].content_store 	misses[3] 	3317663
scalar one_cache_scenario_3_links_network.node[3].content_store 	decision_yes[3] 	0
scalar one_cache_scenario_3_links_network.node[3].content_store 	decision_no[3] 	3317663
scalar one_cache_scenario_3_links_network.node[3].content_store 	decision_ratio[3] 	0
scalar one_cache_scenario_3_links_network.node[4].core_layer 	interests[4] 	6162032
scalar one_cache_scenario_3_links_network.node[4].core_layer 	repo_load[4] 	6162032
scalar one_cache_scenario_3_links_network.node[4].core_layer 	data[4] 	0
scalar one_cache_scenario_3_links_network.node[4].content_store 	p_hit[4] 	0
scalar one_cache_scenario_3_links_network.node[4].content_store 	hits[4] 	0
scalar one_cache_scenario_3_links_network.node[4].content_store 	misses[4] 	6162032
scalar one_cache_scenario_3_links_network.node[4].content_store 	decision_yes[4] 	0
scalar one_cache_scenario_3_links_network.node[4].content_store 	decision_no[4] 	6162032
scalar one_cache_scenario_3_links_network.node[4].content_store 	decision_ratio[4] 	0
scalar one_cache_scenario_3_links_network.node[5].core_layer 	interests[5] 	3387480
scalar one_cache_scenario_3_links_network.node[5].core_layer 	repo_load[5] 	3387480
scalar one_cache_scenario_3_links_network.node[5].core_layer 	data[5] 	0
scalar one_cache_scenario_3_links_network.node[5].content_store 	p_hit[5] 	0
scalar one_cache_scenario_3_links_network.node[5].content_store 	hits[5] 	0
scalar one_cache_scenario_3_links_network.node[5].content_store 	misses[5] 	3387480
scalar one_cache_scenario_3_links_network.node[5].content_store 	decision_yes[5] 	0
scalar one_cache_scenario_3_links_network.node[5].content_store 	decision_no[5] 	3387480
scalar one_cache_scenario_3_links_network.node[5].content_store 	decision_ratio[5] 	0
scalar one_cache_scenario_3_links_network.node[6].core_layer 	interests[6] 	3317663
scalar one_cache_scenario_3_links_network.node[6].core_layer 	repo_load[6] 	3317663
scalar one_cache_scenario_3_links_network.node[6].core_layer 	data[6] 	0
scalar one_cache_scenario_3_links_network.node[6].content_store 	p_hit[6] 	0
scalar one_cache_scenario_3_links_network.node[6].content_store 	hits[6] 	0
scalar one_cache_scenario_3_links_network.node[6].content_store 	misses[6] 	3317663
scalar one_cache_scenario_3_links_network.node[6].content_store 	decision_yes[6] 	0
scalar one_cache_scenario_3_links_network.node[6].content_store 	decision_no[6] 	3317663
scalar one_cache_scenario_3_links_network.node[6].content_store 	decision_ratio[6] 	0
scalar one_cache_scenario_3_links_network.client[0] 	hdistance[0] 	1.4298292529061
scalar one_cache_scenario_3_links_network.client[0] 	downloads[0] 	17998198
scalar one_cache_scenario_3_links_network.client[0] 	avg_time[0] 	0
scalar one_cache_scenario_3_links_network.client[0] 	interests_sent[0] 	17998198
