version 2
run General-6-20140715-12:16:21-10643
attr D never
attr F nrr
attr R lru
attr a 1
attr configname General
attr csize 1e4
attr ctlg 1e6
attr datetime 20140715-12:16:21
attr experiment General
attr inifile omnetpp.ini
attr iterationvars "$net=one_cache_scenario_3_links, $rep=6, $priceratiovalue=10, $weights=0.333_0.333_0.334, $lambda=100, $a=1, $ctlg=1e6, $F=nrr, $ttl=1000, $D=never, $xi=1, $R=lru, $csize=1e4, $pricebits=0, $window=60, $variance=0.05, $mytime=18000"
attr iterationvars2 "$net=one_cache_scenario_3_links, $rep=6, $priceratiovalue=10, $weights=0.333_0.333_0.334, $lambda=100, $a=1, $ctlg=1e6, $F=nrr, $ttl=1000, $D=never, $xi=1, $R=lru, $csize=1e4, $pricebits=0, $window=60, $variance=0.05, $mytime=18000, $repetition=0"
attr lambda 100
attr measurement "$net=one_cache_scenario_3_links, $rep=6, $priceratiovalue=10, $weights=0.333_0.333_0.334, $lambda=100, $a=1, $ctlg=1e6, $F=nrr, $ttl=1000, $D=never, $xi=1, $R=lru, $csize=1e4, $pricebits=0, $window=60, $variance=0.05, $mytime=18000"
attr mytime 18000
attr net one_cache_scenario_3_links
attr network networks.${net=one_cache_scenario_3_links}_network
attr pricebits 0
attr priceratiovalue 10
attr processid 10643
attr rep 6
attr repetition 0
attr replication #0
attr resultdir results
attr runnumber 6
attr seedset 6
attr ttl 1000
attr variance 0.05
attr weights 0.333_0.333_0.334
attr window 60
attr xi 1

scalar . 	a 	1
scalar . 	csize 	1e4
scalar . 	ctlg 	1e6
scalar . 	lambda 	100
scalar . 	mytime 	18000
scalar . 	pricebits 	0
scalar . 	priceratiovalue 	10
scalar . 	rep 	6
scalar . 	ttl 	1000
scalar . 	variance 	0.05
scalar . 	window 	60
scalar . 	xi 	1
scalar one_cache_scenario_3_links_network.content_distribution 	repo-0 	4
scalar one_cache_scenario_3_links_network.content_distribution 	repo-1 	5
scalar one_cache_scenario_3_links_network.content_distribution 	repo-2 	6
scalar one_cache_scenario_3_links_network.content_distribution 	client-0 	0
scalar one_cache_scenario_3_links_network.content_distribution 	repo-0_card 	332632
scalar one_cache_scenario_3_links_network.content_distribution 	repo-1_card 	332881
scalar one_cache_scenario_3_links_network.content_distribution 	repo-2_card 	334487
scalar one_cache_scenario_3_links_network.statistics 	repo_popularity[0] 	0.38161170652867
scalar one_cache_scenario_3_links_network.statistics 	repo_popularity[1] 	0.31352794138179
scalar one_cache_scenario_3_links_network.statistics 	repo_popularity[2] 	0.30486035208954
scalar one_cache_scenario_3_links_network.statistics 	stabilization_time 	36060
scalar one_cache_scenario_3_links_network.node[1].face$o[2].channel 	price[1] 	0
scalar one_cache_scenario_3_links_network.node[1].face$o[2].channel 	represented_price[1] 	0
scalar one_cache_scenario_3_links_network.node[2].face$o[2].channel 	price[2] 	0
scalar one_cache_scenario_3_links_network.node[2].face$o[2].channel 	represented_price[2] 	0
scalar one_cache_scenario_3_links_network.node[3].face$o[2].channel 	price[3] 	0
scalar one_cache_scenario_3_links_network.node[3].face$o[2].channel 	represented_price[3] 	0
scalar one_cache_scenario_3_links_network.node[4].face$o[1].channel 	price[4] 	0
scalar one_cache_scenario_3_links_network.node[4].face$o[1].channel 	represented_price[4] 	0
scalar one_cache_scenario_3_links_network.node[5].face$o[1].channel 	price[5] 	1
scalar one_cache_scenario_3_links_network.node[5].face$o[1].channel 	represented_price[5] 	1
scalar one_cache_scenario_3_links_network.node[6].face$o[1].channel 	price[6] 	10
scalar one_cache_scenario_3_links_network.node[6].face$o[1].channel 	represented_price[6] 	10
scalar one_cache_scenario_3_links_network.statistics 	p_hit 	0
scalar one_cache_scenario_3_links_network.statistics 	interests 	771058.28571429
scalar one_cache_scenario_3_links_network.statistics 	data 	514038.85714286
scalar one_cache_scenario_3_links_network.statistics 	hdistance 	2
scalar one_cache_scenario_3_links_network.statistics 	avg_time 	0
scalar one_cache_scenario_3_links_network.statistics 	downloads 	1799136
scalar one_cache_scenario_3_links_network.statistics 	total_cost 	6055360
scalar one_cache_scenario_3_links_network.statistics 	total_replicas 	1000000
scalar one_cache_scenario_3_links_network.statistics 	inner_hit 	0
scalar one_cache_scenario_3_links_network.statistics 	interests_sent 	1799136
scalar one_cache_scenario_3_links_network.node[0].core_layer 	interests[0] 	1799136
scalar one_cache_scenario_3_links_network.node[0].core_layer 	data[0] 	1799136
scalar one_cache_scenario_3_links_network.node[0].core_layer 	repo_int[0] 	1799136
scalar one_cache_scenario_3_links_network.node[0].content_store 	p_hit[0] 	0
scalar one_cache_scenario_3_links_network.node[0].content_store 	hits[0] 	0
scalar one_cache_scenario_3_links_network.node[0].content_store 	misses[0] 	1799136
scalar one_cache_scenario_3_links_network.node[0].content_store 	decision_yes[0] 	0
scalar one_cache_scenario_3_links_network.node[0].content_store 	decision_no[0] 	1799136
scalar one_cache_scenario_3_links_network.node[0].content_store 	decision_ratio[0] 	0
scalar one_cache_scenario_3_links_network.node[1].core_layer 	interests[1] 	686369
scalar one_cache_scenario_3_links_network.node[1].core_layer 	data[1] 	686369
scalar one_cache_scenario_3_links_network.node[1].content_store 	p_hit[1] 	0
scalar one_cache_scenario_3_links_network.node[1].content_store 	hits[1] 	0
scalar one_cache_scenario_3_links_network.node[1].content_store 	misses[1] 	686369
scalar one_cache_scenario_3_links_network.node[1].content_store 	decision_yes[1] 	0
scalar one_cache_scenario_3_links_network.node[1].content_store 	decision_no[1] 	686369
scalar one_cache_scenario_3_links_network.node[1].content_store 	decision_ratio[1] 	0
scalar one_cache_scenario_3_links_network.node[2].core_layer 	interests[2] 	563590
scalar one_cache_scenario_3_links_network.node[2].core_layer 	data[2] 	563590
scalar one_cache_scenario_3_links_network.node[2].content_store 	p_hit[2] 	0
scalar one_cache_scenario_3_links_network.node[2].content_store 	hits[2] 	0
scalar one_cache_scenario_3_links_network.node[2].content_store 	misses[2] 	563590
scalar one_cache_scenario_3_links_network.node[2].content_store 	decision_yes[2] 	0
scalar one_cache_scenario_3_links_network.node[2].content_store 	decision_no[2] 	563590
scalar one_cache_scenario_3_links_network.node[2].content_store 	decision_ratio[2] 	0
scalar one_cache_scenario_3_links_network.node[3].core_layer 	interests[3] 	549177
scalar one_cache_scenario_3_links_network.node[3].core_layer 	data[3] 	549177
scalar one_cache_scenario_3_links_network.node[3].content_store 	p_hit[3] 	0
scalar one_cache_scenario_3_links_network.node[3].content_store 	hits[3] 	0
scalar one_cache_scenario_3_links_network.node[3].content_store 	misses[3] 	549177
scalar one_cache_scenario_3_links_network.node[3].content_store 	decision_yes[3] 	0
scalar one_cache_scenario_3_links_network.node[3].content_store 	decision_no[3] 	549177
scalar one_cache_scenario_3_links_network.node[3].content_store 	decision_ratio[3] 	0
scalar one_cache_scenario_3_links_network.node[4].core_layer 	interests[4] 	686369
scalar one_cache_scenario_3_links_network.node[4].core_layer 	repo_load[4] 	686369
scalar one_cache_scenario_3_links_network.node[4].core_layer 	data[4] 	0
scalar one_cache_scenario_3_links_network.node[4].content_store 	p_hit[4] 	0
scalar one_cache_scenario_3_links_network.node[4].content_store 	hits[4] 	0
scalar one_cache_scenario_3_links_network.node[4].content_store 	misses[4] 	686369
scalar one_cache_scenario_3_links_network.node[4].content_store 	decision_yes[4] 	0
scalar one_cache_scenario_3_links_network.node[4].content_store 	decision_no[4] 	686369
scalar one_cache_scenario_3_links_network.node[4].content_store 	decision_ratio[4] 	0
scalar one_cache_scenario_3_links_network.node[5].core_layer 	interests[5] 	563590
scalar one_cache_scenario_3_links_network.node[5].core_layer 	repo_load[5] 	563590
scalar one_cache_scenario_3_links_network.node[5].core_layer 	data[5] 	0
scalar one_cache_scenario_3_links_network.node[5].content_store 	p_hit[5] 	0
scalar one_cache_scenario_3_links_network.node[5].content_store 	hits[5] 	0
scalar one_cache_scenario_3_links_network.node[5].content_store 	misses[5] 	563590
scalar one_cache_scenario_3_links_network.node[5].content_store 	decision_yes[5] 	0
scalar one_cache_scenario_3_links_network.node[5].content_store 	decision_no[5] 	563590
scalar one_cache_scenario_3_links_network.node[5].content_store 	decision_ratio[5] 	0
scalar one_cache_scenario_3_links_network.node[6].core_layer 	interests[6] 	549177
scalar one_cache_scenario_3_links_network.node[6].core_layer 	repo_load[6] 	549177
scalar one_cache_scenario_3_links_network.node[6].core_layer 	data[6] 	0
scalar one_cache_scenario_3_links_network.node[6].content_store 	p_hit[6] 	0
scalar one_cache_scenario_3_links_network.node[6].content_store 	hits[6] 	0
scalar one_cache_scenario_3_links_network.node[6].content_store 	misses[6] 	549177
scalar one_cache_scenario_3_links_network.node[6].content_store 	decision_yes[6] 	0
scalar one_cache_scenario_3_links_network.node[6].content_store 	decision_no[6] 	549177
scalar one_cache_scenario_3_links_network.node[6].content_store 	decision_ratio[6] 	0
scalar one_cache_scenario_3_links_network.client[0] 	hdistance[0] 	2
scalar one_cache_scenario_3_links_network.client[0] 	downloads[0] 	1799136
scalar one_cache_scenario_3_links_network.client[0] 	avg_time[0] 	0
scalar one_cache_scenario_3_links_network.client[0] 	interests_sent[0] 	1799136
