version 2
run General-23-20150312-12:14:45-2299
attr D fix0.01
attr F spr
attr R lru
attr a 1
attr configname General
attr csize 1e3
attr ctlg 1e5
attr datetime 20150312-12:14:45
attr experiment General
attr inifile omnetpp.ini
attr iterationvars "$rep=6, $net=geant_cost, $lambda=100, $a=1, $ctlg=1e5, $F=spr, $ttl=10, $D=fix0.01, $R=lru, $csize=1e3, $window=60, $variance=0.05, $mytime=1800, $kappa=1, $priceratiovalue=10, $pricebits=0"
attr iterationvars2 "$rep=6, $net=geant_cost, $lambda=100, $a=1, $ctlg=1e5, $F=spr, $ttl=10, $D=fix0.01, $R=lru, $csize=1e3, $window=60, $variance=0.05, $mytime=1800, $kappa=1, $priceratiovalue=10, $pricebits=0, $repetition=0"
attr kappa 1
attr lambda 100
attr measurement "$rep=6, $net=geant_cost, $lambda=100, $a=1, $ctlg=1e5, $F=spr, $ttl=10, $D=fix0.01, $R=lru, $csize=1e3, $window=60, $variance=0.05, $mytime=1800, $kappa=1, $priceratiovalue=10, $pricebits=0"
attr mytime 1800
attr net geant_cost
attr network networks.${net=geant_cost}_network
attr pricebits 0
attr priceratiovalue 10
attr processid 2299
attr rep 6
attr repetition 0
attr replication #0
attr resultdir results
attr runnumber 23
attr seedset 6
attr ttl 10
attr variance 0.05
attr window 60

scalar . 	a 	1
scalar . 	csize 	1e3
scalar . 	ctlg 	1e5
scalar . 	kappa 	1
scalar . 	lambda 	100
scalar . 	mytime 	1800
scalar . 	pricebits 	0
scalar . 	priceratiovalue 	10
scalar . 	rep 	6
scalar . 	ttl 	10
scalar . 	variance 	0.05
scalar . 	window 	60
scalar geant_cost_network.content_distribution 	repo-0 	18
scalar geant_cost_network.content_distribution 	repo-1 	6
scalar geant_cost_network.content_distribution 	repo-2 	9
scalar geant_cost_network.content_distribution 	client-0 	14
scalar geant_cost_network.content_distribution 	client-1 	21
scalar geant_cost_network.content_distribution 	client-2 	2
scalar geant_cost_network.content_distribution 	client-3 	8
scalar geant_cost_network.content_distribution 	client-4 	19
scalar geant_cost_network.content_distribution 	client-5 	20
scalar geant_cost_network.content_distribution 	client-6 	10
scalar geant_cost_network.content_distribution 	client-7 	5
scalar geant_cost_network.content_distribution 	client-8 	1
scalar geant_cost_network.content_distribution 	client-9 	18
scalar geant_cost_network.content_distribution 	client-10 	12
scalar geant_cost_network.content_distribution 	client-11 	7
scalar geant_cost_network.content_distribution 	client-12 	15
scalar geant_cost_network.content_distribution 	client-13 	16
scalar geant_cost_network.content_distribution 	client-14 	9
scalar geant_cost_network.content_distribution 	client-15 	11
scalar geant_cost_network.content_distribution 	client-16 	4
scalar geant_cost_network.content_distribution 	client-17 	17
scalar geant_cost_network.content_distribution 	client-18 	3
scalar geant_cost_network.content_distribution 	client-19 	0
scalar geant_cost_network.content_distribution 	client-20 	13
scalar geant_cost_network.content_distribution 	client-21 	6
scalar geant_cost_network.content_distribution 	repo-0_card 	33424
scalar geant_cost_network.content_distribution 	repo-0_price 	0
scalar geant_cost_network.content_distribution 	repo-1_card 	33145
scalar geant_cost_network.content_distribution 	repo-1_price 	1
scalar geant_cost_network.content_distribution 	repo-2_card 	33431
scalar geant_cost_network.content_distribution 	repo-2_price 	10
scalar geant_cost_network.statistics 	repo_popularity[0] 	0.28949308356661
scalar geant_cost_network.statistics 	repo_popularity[1] 	0.29775965460776
scalar geant_cost_network.statistics 	repo_popularity[2] 	0.41274726182564
scalar geant_cost_network.statistics 	stabilization_time 	117.2
scalar geant_cost_network.statistics 	p_hit 	0.15934654094258
scalar geant_cost_network.statistics 	interests 	482166.95454545
scalar geant_cost_network.statistics 	data 	302049.13636364
scalar geant_cost_network.statistics 	hdistance 	2.2517786618293
scalar geant_cost_network.statistics 	avg_time 	0.010592448718
scalar geant_cost_network.statistics 	downloads 	3960698
scalar geant_cost_network.statistics 	total_cost 	8230962
scalar geant_cost_network.statistics 	total_replicas 	100000
scalar geant_cost_network.statistics 	inner_hit 	0.42749081096312
scalar geant_cost_network.statistics 	interests_sent 	3962600
scalar geant_cost_network.node[0].core_layer 	interests[0] 	179494
scalar geant_cost_network.node[0].core_layer 	data[0] 	120109
scalar geant_cost_network.node[0].core_layer 	repo_int[0] 	2267536
scalar geant_cost_network.node[0].content_store 	p_hit[0] 	0.32938705472049
scalar geant_cost_network.node[0].content_store 	hits[0] 	59123
scalar geant_cost_network.node[0].content_store 	misses[0] 	120371
scalar geant_cost_network.node[0].content_store 	decision_yes[0] 	1228
scalar geant_cost_network.node[0].content_store 	decision_no[0] 	118881
scalar geant_cost_network.node[0].content_store 	decision_ratio[0] 	0.010224046491104
scalar geant_cost_network.node[0].content_store 	cache_value[0] 	1.8880930890645
scalar geant_cost_network.node[0].content_store 	average_price_of_cache[0] 	1.1521739130435
scalar geant_cost_network.node[1].core_layer 	interests[1] 	300184
scalar geant_cost_network.node[1].core_layer 	data[1] 	235067
scalar geant_cost_network.node[1].content_store 	p_hit[1] 	0.21645723955974
scalar geant_cost_network.node[1].content_store 	hits[1] 	64977
scalar geant_cost_network.node[1].content_store 	misses[1] 	235207
scalar geant_cost_network.node[1].content_store 	decision_yes[1] 	2373
scalar geant_cost_network.node[1].content_store 	decision_no[1] 	232694
scalar geant_cost_network.node[1].content_store 	decision_ratio[1] 	0.010094994193145
scalar geant_cost_network.node[1].content_store 	cache_value[1] 	0.23720301731364
scalar geant_cost_network.node[1].content_store 	average_price_of_cache[1] 	1.4782608695652
scalar geant_cost_network.node[2].core_layer 	interests[2] 	180622
scalar geant_cost_network.node[2].core_layer 	data[2] 	120364
scalar geant_cost_network.node[2].content_store 	p_hit[2] 	0.3331986136794
scalar geant_cost_network.node[2].content_store 	hits[2] 	60183
scalar geant_cost_network.node[2].content_store 	misses[2] 	120439
scalar geant_cost_network.node[2].content_store 	decision_yes[2] 	1206
scalar geant_cost_network.node[2].content_store 	decision_no[2] 	119158
scalar geant_cost_network.node[2].content_store 	decision_ratio[2] 	0.010019607191519
scalar geant_cost_network.node[2].content_store 	cache_value[2] 	0.31098419447571
scalar geant_cost_network.node[2].content_store 	average_price_of_cache[2] 	1.1739130434783
scalar geant_cost_network.node[3].core_layer 	interests[3] 	791051
scalar geant_cost_network.node[3].core_layer 	data[3] 	705565
scalar geant_cost_network.node[3].content_store 	p_hit[3] 	0.1074380792136
scalar geant_cost_network.node[3].content_store 	hits[3] 	84989
scalar geant_cost_network.node[3].content_store 	misses[3] 	706062
scalar geant_cost_network.node[3].content_store 	decision_yes[3] 	7045
scalar geant_cost_network.node[3].content_store 	decision_no[3] 	698520
scalar geant_cost_network.node[3].content_store 	decision_ratio[3] 	0.0099849057138605
scalar geant_cost_network.node[3].content_store 	cache_value[3] 	3.4047442843104
scalar geant_cost_network.node[3].content_store 	average_price_of_cache[3] 	0.84782608695652
scalar geant_cost_network.node[4].core_layer 	interests[4] 	839028
scalar geant_cost_network.node[4].core_layer 	data[4] 	732629
scalar geant_cost_network.node[4].content_store 	p_hit[4] 	0.12609829469338
scalar geant_cost_network.node[4].content_store 	hits[4] 	105800
scalar geant_cost_network.node[4].content_store 	misses[4] 	733228
scalar geant_cost_network.node[4].content_store 	decision_yes[4] 	7170
scalar geant_cost_network.node[4].content_store 	decision_no[4] 	725459
scalar geant_cost_network.node[4].content_store 	decision_ratio[4] 	0.0097866723812462
scalar geant_cost_network.node[4].content_store 	cache_value[4] 	0.21729779015255
scalar geant_cost_network.node[4].content_store 	average_price_of_cache[4] 	1.5217391304348
scalar geant_cost_network.node[5].core_layer 	interests[5] 	733940
scalar geant_cost_network.node[5].core_layer 	data[5] 	644013
scalar geant_cost_network.node[5].content_store 	p_hit[5] 	0.12200316102134
scalar geant_cost_network.node[5].content_store 	hits[5] 	89543
scalar geant_cost_network.node[5].content_store 	misses[5] 	644397
scalar geant_cost_network.node[5].content_store 	decision_yes[5] 	6364
scalar geant_cost_network.node[5].content_store 	decision_no[5] 	637649
scalar geant_cost_network.node[5].content_store 	decision_ratio[5] 	0.0098817881005508
scalar geant_cost_network.node[5].content_store 	cache_value[5] 	0.16527206352922
scalar geant_cost_network.node[5].content_store 	average_price_of_cache[5] 	0.97826086956522
scalar geant_cost_network.node[6].core_layer 	interests[6] 	925312
scalar geant_cost_network.node[6].core_layer 	repo_load[6] 	738162
scalar geant_cost_network.node[6].core_layer 	data[6] 	97139
scalar geant_cost_network.node[6].content_store 	p_hit[6] 	0.097198566537557
scalar geant_cost_network.node[6].content_store 	hits[6] 	89939
scalar geant_cost_network.node[6].content_store 	misses[6] 	835373
scalar geant_cost_network.node[6].content_store 	decision_yes[6] 	8220
scalar geant_cost_network.node[6].content_store 	decision_no[6] 	827081
scalar geant_cost_network.node[6].content_store 	decision_ratio[6] 	0.0098407639880714
scalar geant_cost_network.node[6].content_store 	cache_value[6] 	0.7816545260727
scalar geant_cost_network.node[6].content_store 	average_price_of_cache[6] 	1.0869565217391
scalar geant_cost_network.node[7].core_layer 	interests[7] 	693471
scalar geant_cost_network.node[7].core_layer 	data[7] 	592157
scalar geant_cost_network.node[7].content_store 	p_hit[7] 	0.14578836029192
scalar geant_cost_network.node[7].content_store 	hits[7] 	101100
scalar geant_cost_network.node[7].content_store 	misses[7] 	592371
scalar geant_cost_network.node[7].content_store 	decision_yes[7] 	5984
scalar geant_cost_network.node[7].content_store 	decision_no[7] 	586173
scalar geant_cost_network.node[7].content_store 	decision_ratio[7] 	0.010105428121258
scalar geant_cost_network.node[7].content_store 	cache_value[7] 	15.064467574429
scalar geant_cost_network.node[7].content_store 	average_price_of_cache[7] 	3.4347826086957
scalar geant_cost_network.node[8].core_layer 	interests[8] 	535567
scalar geant_cost_network.node[8].core_layer 	data[8] 	455946
scalar geant_cost_network.node[8].content_store 	p_hit[8] 	0.1485565764881
scalar geant_cost_network.node[8].content_store 	hits[8] 	79562
scalar geant_cost_network.node[8].content_store 	misses[8] 	456005
scalar geant_cost_network.node[8].content_store 	decision_yes[8] 	4450
scalar geant_cost_network.node[8].content_store 	decision_no[8] 	451496
scalar geant_cost_network.node[8].content_store 	decision_ratio[8] 	0.0097599277107377
scalar geant_cost_network.node[8].content_store 	cache_value[8] 	11.091789978222
scalar geant_cost_network.node[8].content_store 	average_price_of_cache[8] 	3.3695652173913
scalar geant_cost_network.node[9].core_layer 	interests[9] 	1028567
scalar geant_cost_network.node[9].core_layer 	repo_load[9] 	749280
scalar geant_cost_network.node[9].core_layer 	data[9] 	176655
scalar geant_cost_network.node[9].content_store 	p_hit[9] 	0.099709595971872
scalar geant_cost_network.node[9].content_store 	hits[9] 	102558
scalar geant_cost_network.node[9].content_store 	misses[9] 	926009
scalar geant_cost_network.node[9].content_store 	decision_yes[9] 	9357
scalar geant_cost_network.node[9].content_store 	decision_no[9] 	916578
scalar geant_cost_network.node[9].content_store 	decision_ratio[9] 	0.010105460966483
scalar geant_cost_network.node[9].content_store 	cache_value[9] 	20.038579295994
scalar geant_cost_network.node[9].content_store 	average_price_of_cache[9] 	8.7391304347826
scalar geant_cost_network.node[10].core_layer 	interests[10] 	221018
scalar geant_cost_network.node[10].core_layer 	data[10] 	159065
scalar geant_cost_network.node[10].content_store 	p_hit[10] 	0.28020794686406
scalar geant_cost_network.node[10].content_store 	hits[10] 	61931
scalar geant_cost_network.node[10].content_store 	misses[10] 	159087
scalar geant_cost_network.node[10].content_store 	decision_yes[10] 	1577
scalar geant_cost_network.node[10].content_store 	decision_no[10] 	157488
scalar geant_cost_network.node[10].content_store 	decision_ratio[10] 	0.0099141860245811
scalar geant_cost_network.node[10].content_store 	cache_value[10] 	4.3860871151365
scalar geant_cost_network.node[10].content_store 	average_price_of_cache[10] 	4.2173913043478
scalar geant_cost_network.node[11].core_layer 	interests[11] 	180269
scalar geant_cost_network.node[11].core_layer 	data[11] 	121075
scalar geant_cost_network.node[11].content_store 	p_hit[11] 	0.32821505638795
scalar geant_cost_network.node[11].content_store 	hits[11] 	59167
scalar geant_cost_network.node[11].content_store 	misses[11] 	121102
scalar geant_cost_network.node[11].content_store 	decision_yes[11] 	1244
scalar geant_cost_network.node[11].content_store 	decision_no[11] 	119831
scalar geant_cost_network.node[11].content_store 	decision_ratio[11] 	0.010274623167458
scalar geant_cost_network.node[11].content_store 	cache_value[11] 	10.177011609485
scalar geant_cost_network.node[11].content_store 	average_price_of_cache[11] 	0.91304347826087
scalar geant_cost_network.node[12].core_layer 	interests[12] 	741943
scalar geant_cost_network.node[12].core_layer 	data[12] 	650154
scalar geant_cost_network.node[12].content_store 	p_hit[12] 	0.12335988074556
scalar geant_cost_network.node[12].content_store 	hits[12] 	91526
scalar geant_cost_network.node[12].content_store 	misses[12] 	650417
scalar geant_cost_network.node[12].content_store 	decision_yes[12] 	6443
scalar geant_cost_network.node[12].content_store 	decision_no[12] 	643711
scalar geant_cost_network.node[12].content_store 	decision_ratio[12] 	0.0099099597941411
scalar geant_cost_network.node[12].content_store 	cache_value[12] 	15.170752419345
scalar geant_cost_network.node[12].content_store 	average_price_of_cache[12] 	5.2391304347826
scalar geant_cost_network.node[13].core_layer 	interests[13] 	266796
scalar geant_cost_network.node[13].core_layer 	data[13] 	196440
scalar geant_cost_network.node[13].content_store 	p_hit[13] 	0.26203541282478
scalar geant_cost_network.node[13].content_store 	hits[13] 	69910
scalar geant_cost_network.node[13].content_store 	misses[13] 	196886
scalar geant_cost_network.node[13].content_store 	decision_yes[13] 	1991
scalar geant_cost_network.node[13].content_store 	decision_no[13] 	194449
scalar geant_cost_network.node[13].content_store 	decision_ratio[13] 	0.010135410303401
scalar geant_cost_network.node[13].content_store 	cache_value[13] 	2.8131735014014
scalar geant_cost_network.node[13].content_store 	average_price_of_cache[13] 	2.8478260869565
scalar geant_cost_network.node[14].core_layer 	interests[14] 	637979
scalar geant_cost_network.node[14].core_layer 	data[14] 	542706
scalar geant_cost_network.node[14].content_store 	p_hit[14] 	0.14775094478031
scalar geant_cost_network.node[14].content_store 	hits[14] 	94262
scalar geant_cost_network.node[14].content_store 	misses[14] 	543717
scalar geant_cost_network.node[14].content_store 	decision_yes[14] 	5444
scalar geant_cost_network.node[14].content_store 	decision_no[14] 	537262
scalar geant_cost_network.node[14].content_store 	decision_ratio[14] 	0.01003121395378
scalar geant_cost_network.node[14].content_store 	cache_value[14] 	0.091351964988102
scalar geant_cost_network.node[14].content_store 	average_price_of_cache[14] 	0.32608695652174
scalar geant_cost_network.node[15].core_layer 	interests[15] 	222480
scalar geant_cost_network.node[15].core_layer 	data[15] 	159992
scalar geant_cost_network.node[15].content_store 	p_hit[15] 	0.28065893563466
scalar geant_cost_network.node[15].content_store 	hits[15] 	62441
scalar geant_cost_network.node[15].content_store 	misses[15] 	160039
scalar geant_cost_network.node[15].content_store 	decision_yes[15] 	1574
scalar geant_cost_network.node[15].content_store 	decision_no[15] 	158418
scalar geant_cost_network.node[15].content_store 	decision_ratio[15] 	0.009837991899595
scalar geant_cost_network.node[15].content_store 	cache_value[15] 	2.1466657745577
scalar geant_cost_network.node[15].content_store 	average_price_of_cache[15] 	2.6521739130435
scalar geant_cost_network.node[16].core_layer 	interests[16] 	179546
scalar geant_cost_network.node[16].core_layer 	data[16] 	120431
scalar geant_cost_network.node[16].content_store 	p_hit[16] 	0.3284395085382
scalar geant_cost_network.node[16].content_store 	hits[16] 	58970
scalar geant_cost_network.node[16].content_store 	misses[16] 	120576
scalar geant_cost_network.node[16].content_store 	decision_yes[16] 	1160
scalar geant_cost_network.node[16].content_store 	decision_no[16] 	119271
scalar geant_cost_network.node[16].content_store 	decision_ratio[16] 	0.0096320714766132
scalar geant_cost_network.node[16].content_store 	cache_value[16] 	1.7367775742638
scalar geant_cost_network.node[16].content_store 	average_price_of_cache[16] 	0.73913043478261
scalar geant_cost_network.node[17].core_layer 	interests[17] 	224349
scalar geant_cost_network.node[17].core_layer 	data[17] 	160684
scalar geant_cost_network.node[17].content_store 	p_hit[17] 	0.28347797404936
scalar geant_cost_network.node[17].content_store 	hits[17] 	63598
scalar geant_cost_network.node[17].content_store 	misses[17] 	160751
scalar geant_cost_network.node[17].content_store 	decision_yes[17] 	1603
scalar geant_cost_network.node[17].content_store 	decision_no[17] 	159081
scalar geant_cost_network.node[17].content_store 	decision_ratio[17] 	0.0099761021632521
scalar geant_cost_network.node[17].content_store 	cache_value[17] 	0.04741983749478
scalar geant_cost_network.node[17].content_store 	average_price_of_cache[17] 	0.71739130434783
scalar geant_cost_network.node[18].core_layer 	interests[18] 	1144592
scalar geant_cost_network.node[18].core_layer 	repo_load[18] 	780094
scalar geant_cost_network.node[18].core_layer 	data[18] 	254975
scalar geant_cost_network.node[18].content_store 	p_hit[18] 	0.095482058235598
scalar geant_cost_network.node[18].content_store 	hits[18] 	109288
scalar geant_cost_network.node[18].content_store 	misses[18] 	1035304
scalar geant_cost_network.node[18].content_store 	decision_yes[18] 	10354
scalar geant_cost_network.node[18].content_store 	decision_no[18] 	1024715
scalar geant_cost_network.node[18].content_store 	decision_ratio[18] 	0.010003197854443
scalar geant_cost_network.node[18].content_store 	cache_value[18] 	0.0051140724835629
scalar geant_cost_network.node[18].content_store 	average_price_of_cache[18] 	0.26086956521739
scalar geant_cost_network.node[19].core_layer 	interests[19] 	179632
scalar geant_cost_network.node[19].core_layer 	data[19] 	120047
scalar geant_cost_network.node[19].content_store 	p_hit[19] 	0.33152779014875
scalar geant_cost_network.node[19].content_store 	hits[19] 	59553
scalar geant_cost_network.node[19].content_store 	misses[19] 	120079
scalar geant_cost_network.node[19].content_store 	decision_yes[19] 	1179
scalar geant_cost_network.node[19].content_store 	decision_no[19] 	118868
scalar geant_cost_network.node[19].content_store 	decision_ratio[19] 	0.0098211533815922
scalar geant_cost_network.node[19].content_store 	cache_value[19] 	0.2640207828854
scalar geant_cost_network.node[19].content_store 	average_price_of_cache[19] 	1.4130434782609
scalar geant_cost_network.node[20].core_layer 	interests[20] 	180574
scalar geant_cost_network.node[20].core_layer 	data[20] 	120167
scalar geant_cost_network.node[20].content_store 	p_hit[20] 	0.33432830861586
scalar geant_cost_network.node[20].content_store 	hits[20] 	60371
scalar geant_cost_network.node[20].content_store 	misses[20] 	120203
scalar geant_cost_network.node[20].content_store 	decision_yes[20] 	1227
scalar geant_cost_network.node[20].content_store 	decision_no[20] 	118940
scalar geant_cost_network.node[20].content_store 	decision_ratio[20] 	0.010210789983939
scalar geant_cost_network.node[20].content_store 	cache_value[20] 	0.017325879212793
scalar geant_cost_network.node[20].content_store 	average_price_of_cache[20] 	0.30434782608696
scalar geant_cost_network.node[21].core_layer 	interests[21] 	221259
scalar geant_cost_network.node[21].core_layer 	data[21] 	159701
scalar geant_cost_network.node[21].content_store 	p_hit[21] 	0.27797739301
scalar geant_cost_network.node[21].content_store 	hits[21] 	61505
scalar geant_cost_network.node[21].content_store 	misses[21] 	159754
scalar geant_cost_network.node[21].content_store 	decision_yes[21] 	1621
scalar geant_cost_network.node[21].content_store 	decision_no[21] 	158080
scalar geant_cost_network.node[21].content_store 	decision_ratio[21] 	0.010150218220299
scalar geant_cost_network.node[21].content_store 	cache_value[21] 	0.45710180642856
scalar geant_cost_network.node[21].content_store 	average_price_of_cache[21] 	0.95652173913043
scalar geant_cost_network.client[0] 	hdistance[0] 	2.8288810033923
scalar geant_cost_network.client[0] 	downloads[0] 	179232
scalar geant_cost_network.client[0] 	avg_time[0] 	0.038545513607
scalar geant_cost_network.client[0] 	interests_sent[0] 	179494
scalar geant_cost_network.client[1] 	hdistance[1] 	2.2706384448666
scalar geant_cost_network.client[1] 	downloads[1] 	179483
scalar geant_cost_network.client[1] 	avg_time[1] 	0.008639529515
scalar geant_cost_network.client[1] 	interests_sent[1] 	179544
scalar geant_cost_network.client[2] 	hdistance[2] 	2.4460112879195
scalar geant_cost_network.client[2] 	downloads[2] 	180547
scalar geant_cost_network.client[2] 	avg_time[2] 	0.011944325625
scalar geant_cost_network.client[2] 	interests_sent[2] 	180622
scalar geant_cost_network.client[3] 	hdistance[3] 	1.898204925604
scalar geant_cost_network.client[3] 	downloads[3] 	179714
scalar geant_cost_network.client[3] 	avg_time[3] 	0.004916245156
scalar geant_cost_network.client[3] 	interests_sent[3] 	179773
scalar geant_cost_network.client[4] 	hdistance[4] 	1.946200085635
scalar geant_cost_network.client[4] 	downloads[4] 	179833
scalar geant_cost_network.client[4] 	avg_time[4] 	0.003679843728
scalar geant_cost_network.client[4] 	interests_sent[4] 	179876
scalar geant_cost_network.client[5] 	hdistance[5] 	2.0174317031102
scalar geant_cost_network.client[5] 	downloads[5] 	179730
scalar geant_cost_network.client[5] 	avg_time[5] 	0.006812600236
scalar geant_cost_network.client[5] 	interests_sent[5] 	179848
scalar geant_cost_network.client[6] 	hdistance[6] 	2.0066551230063
scalar geant_cost_network.client[6] 	downloads[6] 	180763
scalar geant_cost_network.client[6] 	avg_time[6] 	0.004171430266
scalar geant_cost_network.client[6] 	interests_sent[6] 	180835
scalar geant_cost_network.client[7] 	hdistance[7] 	1.6904988242358
scalar geant_cost_network.client[7] 	downloads[7] 	179883
scalar geant_cost_network.client[7] 	avg_time[7] 	0.003125625705
scalar geant_cost_network.client[7] 	interests_sent[7] 	179905
scalar geant_cost_network.client[8] 	hdistance[8] 	1.9571676184974
scalar geant_cost_network.client[8] 	downloads[8] 	180004
scalar geant_cost_network.client[8] 	avg_time[8] 	0.003569349794
scalar geant_cost_network.client[8] 	interests_sent[8] 	180027
scalar geant_cost_network.client[9] 	hdistance[9] 	2.2555057774624
scalar geant_cost_network.client[9] 	downloads[9] 	180356
scalar geant_cost_network.client[9] 	avg_time[9] 	0.003843109873
scalar geant_cost_network.client[9] 	interests_sent[9] 	180397
scalar geant_cost_network.client[10] 	hdistance[10] 	2.7776005759061
scalar geant_cost_network.client[10] 	downloads[10] 	180585
scalar geant_cost_network.client[10] 	avg_time[10] 	0.005025061391
scalar geant_cost_network.client[10] 	interests_sent[10] 	180605
scalar geant_cost_network.client[11] 	hdistance[11] 	2.695931026065
scalar geant_cost_network.client[11] 	downloads[11] 	180242
scalar geant_cost_network.client[11] 	avg_time[11] 	0.006279360437
scalar geant_cost_network.client[11] 	interests_sent[11] 	180269
scalar geant_cost_network.client[12] 	hdistance[12] 	2.1451463190951
scalar geant_cost_network.client[12] 	downloads[12] 	179915
scalar geant_cost_network.client[12] 	avg_time[12] 	0.005474181359
scalar geant_cost_network.client[12] 	interests_sent[12] 	179967
scalar geant_cost_network.client[13] 	hdistance[13] 	2.0551889122628
scalar geant_cost_network.client[13] 	downloads[13] 	180163
scalar geant_cost_network.client[13] 	avg_time[13] 	0.030751512853
scalar geant_cost_network.client[13] 	interests_sent[13] 	180433
scalar geant_cost_network.client[14] 	hdistance[14] 	1.8673360726571
scalar geant_cost_network.client[14] 	downloads[14] 	179363
scalar geant_cost_network.client[14] 	avg_time[14] 	0.023017520328
scalar geant_cost_network.client[14] 	interests_sent[14] 	179679
scalar geant_cost_network.client[15] 	hdistance[15] 	2.0318907112329
scalar geant_cost_network.client[15] 	downloads[15] 	179927
scalar geant_cost_network.client[15] 	avg_time[15] 	0.007759347385
scalar geant_cost_network.client[15] 	interests_sent[15] 	179970
scalar geant_cost_network.client[16] 	hdistance[16] 	2.4503430861589
scalar geant_cost_network.client[16] 	downloads[16] 	179401
scalar geant_cost_network.client[16] 	avg_time[16] 	0.028209336141
scalar geant_cost_network.client[16] 	interests_sent[16] 	179546
scalar geant_cost_network.client[17] 	hdistance[17] 	2.2367836467884
scalar geant_cost_network.client[17] 	downloads[17] 	180515
scalar geant_cost_network.client[17] 	avg_time[17] 	0.009623909609
scalar geant_cost_network.client[17] 	interests_sent[17] 	180568
scalar geant_cost_network.client[18] 	hdistance[18] 	2.1811678000143
scalar geant_cost_network.client[18] 	downloads[18] 	180733
scalar geant_cost_network.client[18] 	avg_time[18] 	0.006291517791
scalar geant_cost_network.client[18] 	interests_sent[18] 	180830
scalar geant_cost_network.client[19] 	hdistance[19] 	2.6643151447662
scalar geant_cost_network.client[19] 	downloads[19] 	179600
scalar geant_cost_network.client[19] 	avg_time[19] 	0.007011159789
scalar geant_cost_network.client[19] 	interests_sent[19] 	179632
scalar geant_cost_network.client[20] 	hdistance[20] 	2.6710609400791
scalar geant_cost_network.client[20] 	downloads[20] 	180538
scalar geant_cost_network.client[20] 	avg_time[20] 	0.006913238755
scalar geant_cost_network.client[20] 	interests_sent[20] 	180574
scalar geant_cost_network.client[21] 	hdistance[21] 	2.4451715314895
scalar geant_cost_network.client[21] 	downloads[21] 	180171
scalar geant_cost_network.client[21] 	avg_time[21] 	0.007430152454
scalar geant_cost_network.client[21] 	interests_sent[21] 	180206
