version 2
run General-0-20150717-20:11:28-11674
attr C 1e4
attr D lce
attr F spr
attr R lru_repr
attr a 1
attr brates 0.3_0.7_1.5_2.5_3.5
attr configname General
attr ctlg 1e6
attr datetime 20150717-20:11:28
attr experiment General
attr inifile omnetpp.ini
attr iterationvars "$net=abilene_nodelay, $rep=0, $lambda=100, $a=1, $ctlg=1e6, $brates=0.3_0.7_1.5_2.5_3.5, $F=spr, $ttl=1000, $D=lce, $R=lru_repr, $C=1e4, $window=60, $variance=0.05, $mytime=180"
attr iterationvars2 "$net=abilene_nodelay, $rep=0, $lambda=100, $a=1, $ctlg=1e6, $brates=0.3_0.7_1.5_2.5_3.5, $F=spr, $ttl=1000, $D=lce, $R=lru_repr, $C=1e4, $window=60, $variance=0.05, $mytime=180, $repetition=0"
attr lambda 100
attr measurement "$net=abilene_nodelay, $rep=0, $lambda=100, $a=1, $ctlg=1e6, $brates=0.3_0.7_1.5_2.5_3.5, $F=spr, $ttl=1000, $D=lce, $R=lru_repr, $C=1e4, $window=60, $variance=0.05, $mytime=180"
attr mytime 180
attr net abilene_nodelay
attr network networks.${net=abilene_nodelay}_network
attr processid 11674
attr rep 0
attr repetition 0
attr replication #0
attr resultdir results
attr runnumber 0
attr seedset 0
attr ttl 1000
attr variance 0.05
attr window 60

scalar . 	C 	1e4
scalar . 	a 	1
scalar . 	ctlg 	1e6
scalar . 	lambda 	100
scalar . 	mytime 	180
scalar . 	rep 	0
scalar . 	ttl 	1000
scalar . 	variance 	0.05
scalar . 	window 	60
scalar abilene_nodelay_network.content_distribution 	repo-0 	5
scalar abilene_nodelay_network.content_distribution 	repo-1 	8
scalar abilene_nodelay_network.content_distribution 	repo-2 	9
scalar abilene_nodelay_network.content_distribution 	repo-3 	0
scalar abilene_nodelay_network.content_distribution 	repo-4 	1
scalar abilene_nodelay_network.content_distribution 	repo-5 	7
scalar abilene_nodelay_network.content_distribution 	repo-6 	6
scalar abilene_nodelay_network.content_distribution 	repo-7 	2
scalar abilene_nodelay_network.content_distribution 	repo-8 	4
scalar abilene_nodelay_network.content_distribution 	repo-9 	10
scalar abilene_nodelay_network.content_distribution 	repo-10 	3
scalar abilene_nodelay_network.content_distribution 	client-0 	10
scalar abilene_nodelay_network.content_distribution 	client-1 	9
scalar abilene_nodelay_network.content_distribution 	client-2 	8
scalar abilene_nodelay_network.content_distribution 	client-3 	7
scalar abilene_nodelay_network.content_distribution 	client-4 	3
scalar abilene_nodelay_network.content_distribution 	client-5 	6
scalar abilene_nodelay_network.content_distribution 	client-6 	5
scalar abilene_nodelay_network.content_distribution 	client-7 	1
scalar abilene_nodelay_network.content_distribution 	client-8 	4
scalar abilene_nodelay_network.content_distribution 	client-9 	0
scalar abilene_nodelay_network.content_distribution 	client-10 	2
scalar abilene_nodelay_network.content_distribution 	repo-0_card 	90891
scalar abilene_nodelay_network.content_distribution 	repo-0_price 	0
scalar abilene_nodelay_network.content_distribution 	repo-1_card 	90362
scalar abilene_nodelay_network.content_distribution 	repo-1_price 	0
scalar abilene_nodelay_network.content_distribution 	repo-2_card 	90927
scalar abilene_nodelay_network.content_distribution 	repo-2_price 	0
scalar abilene_nodelay_network.content_distribution 	repo-3_card 	91098
scalar abilene_nodelay_network.content_distribution 	repo-3_price 	0
scalar abilene_nodelay_network.content_distribution 	repo-4_card 	91231
scalar abilene_nodelay_network.content_distribution 	repo-4_price 	0
scalar abilene_nodelay_network.content_distribution 	repo-5_card 	90932
scalar abilene_nodelay_network.content_distribution 	repo-5_price 	0
scalar abilene_nodelay_network.content_distribution 	repo-6_card 	90752
scalar abilene_nodelay_network.content_distribution 	repo-6_price 	0
scalar abilene_nodelay_network.content_distribution 	repo-7_card 	90980
scalar abilene_nodelay_network.content_distribution 	repo-7_price 	0
scalar abilene_nodelay_network.content_distribution 	repo-8_card 	90629
scalar abilene_nodelay_network.content_distribution 	repo-8_price 	0
scalar abilene_nodelay_network.content_distribution 	repo-9_card 	91219
scalar abilene_nodelay_network.content_distribution 	repo-9_price 	0
scalar abilene_nodelay_network.content_distribution 	repo-10_card 	90979
scalar abilene_nodelay_network.content_distribution 	repo-10_price 	0
scalar abilene_nodelay_network.statistics 	p_hit 	0.30063200632567
scalar abilene_nodelay_network.statistics 	interests 	97266
scalar abilene_nodelay_network.statistics 	data 	45658.363636364
scalar abilene_nodelay_network.statistics 	hdistance 	1.1767058361792
scalar abilene_nodelay_network.statistics 	avg_time 	0
scalar abilene_nodelay_network.statistics 	downloads 	471750
scalar abilene_nodelay_network.statistics 	total_cost 	0
scalar abilene_nodelay_network.statistics 	total_replicas 	1000000
scalar abilene_nodelay_network.statistics 	"representations_downloaded 0.479913:0.0335771:0.0197541:0.0136216:0.453134:" 	0
scalar abilene_nodelay_network.statistics 	"slots_per_representation 100:233:500:833:1167:" 	0
scalar abilene_nodelay_network.statistics 	inner_hit 	0.47847376788553
scalar abilene_nodelay_network.statistics 	interests_sent 	471751
scalar abilene_nodelay_network.statistics 	execution_time 	258512
scalar abilene_nodelay_network.node[0].core_layer 	interests[0] 	64224
scalar abilene_nodelay_network.node[0].core_layer 	repo_load[0] 	21036
scalar abilene_nodelay_network.node[0].core_layer 	data[0] 	20583
scalar abilene_nodelay_network.node[0].core_layer 	slots_sent[face$o[1]->client[0]] 	25442169
scalar abilene_nodelay_network.node[0].core_layer 	slots_sent[face$o[2]->node[1]] 	3231861
scalar abilene_nodelay_network.node[0].core_layer 	slots_sent[face$o[3]->node[10]] 	853941
scalar abilene_nodelay_network.node[0].content_store 	p_hit[0] 	0.35197122571001
scalar abilene_nodelay_network.node[0].content_store 	hits[0] 	22605
scalar abilene_nodelay_network.node[0].content_store 	misses[0] 	41619
scalar abilene_nodelay_network.node[0].content_store 	decision_yes[0] 	20583
scalar abilene_nodelay_network.node[0].content_store 	decision_no[0] 	21036
scalar abilene_nodelay_network.node[0].content_store 	decision_ratio[0] 	0.49455777409356
scalar abilene_nodelay_network.node[0].content_store 	"representation_breakdown[0] 13460:1271:458:253:1279:" 	0
scalar abilene_nodelay_network.node[0].proactive_component 	hdistance[0].proactive_component 	1.8345416882444
scalar abilene_nodelay_network.node[0].proactive_component 	downloads[0].proactive_component 	3862
scalar abilene_nodelay_network.node[0].proactive_component 	avg_time[0].proactive_component 	0
scalar abilene_nodelay_network.node[0].proactive_component 	interests_sent[0].proactive_component 	3862
scalar abilene_nodelay_network.node[1].core_layer 	interests[1] 	113882
scalar abilene_nodelay_network.node[1].core_layer 	repo_load[1] 	22867
scalar abilene_nodelay_network.node[1].core_layer 	data[1] 	59274
scalar abilene_nodelay_network.node[1].core_layer 	slots_sent[face$o[1]->client[1]] 	26031719
scalar abilene_nodelay_network.node[1].core_layer 	slots_sent[face$o[2]->node[0]] 	3692839
scalar abilene_nodelay_network.node[1].core_layer 	slots_sent[face$o[3]->node[10]] 	2801930
scalar abilene_nodelay_network.node[1].core_layer 	slots_sent[face$o[4]->node[2]] 	7260909
scalar abilene_nodelay_network.node[1].content_store 	p_hit[1] 	0.27871832247414
scalar abilene_nodelay_network.node[1].content_store 	hits[1] 	31741
scalar abilene_nodelay_network.node[1].content_store 	misses[1] 	82141
scalar abilene_nodelay_network.node[1].content_store 	decision_yes[1] 	59274
scalar abilene_nodelay_network.node[1].content_store 	decision_no[1] 	22867
scalar abilene_nodelay_network.node[1].content_store 	decision_ratio[1] 	0.72161283646413
scalar abilene_nodelay_network.node[1].content_store 	"representation_breakdown[1] 34010:4258:1365:754:2680:" 	0
scalar abilene_nodelay_network.node[1].proactive_component 	hdistance[1].proactive_component 	2.0642466148084
scalar abilene_nodelay_network.node[1].proactive_component 	downloads[1].proactive_component 	10413
scalar abilene_nodelay_network.node[1].proactive_component 	avg_time[1].proactive_component 	0
scalar abilene_nodelay_network.node[1].proactive_component 	interests_sent[1].proactive_component 	10413
scalar abilene_nodelay_network.node[2].core_layer 	interests[2] 	150008
scalar abilene_nodelay_network.node[2].core_layer 	repo_load[2] 	24394
scalar abilene_nodelay_network.node[2].core_layer 	data[2] 	86075
scalar abilene_nodelay_network.node[2].core_layer 	slots_sent[face$o[1]->client[2]] 	26364920
scalar abilene_nodelay_network.node[2].core_layer 	slots_sent[face$o[2]->node[1]] 	7595316
scalar abilene_nodelay_network.node[2].core_layer 	slots_sent[face$o[3]->node[3]] 	9114948
scalar abilene_nodelay_network.node[2].core_layer 	slots_sent[face$o[4]->node[8]] 	3748930
scalar abilene_nodelay_network.node[2].content_store 	p_hit[2] 	0.26357927577196
scalar abilene_nodelay_network.node[2].content_store 	hits[2] 	39539
scalar abilene_nodelay_network.node[2].content_store 	misses[2] 	110469
scalar abilene_nodelay_network.node[2].content_store 	decision_yes[2] 	86075
scalar abilene_nodelay_network.node[2].content_store 	decision_no[2] 	24394
scalar abilene_nodelay_network.node[2].content_store 	decision_ratio[2] 	0.7791778689044
scalar abilene_nodelay_network.node[2].content_store 	"representation_breakdown[2] 43356:6235:2134:1109:3334:" 	0
scalar abilene_nodelay_network.node[2].proactive_component 	hdistance[2].proactive_component 	2.1418712116666
scalar abilene_nodelay_network.node[2].proactive_component 	downloads[2].proactive_component 	16663
scalar abilene_nodelay_network.node[2].proactive_component 	avg_time[2].proactive_component 	0
scalar abilene_nodelay_network.node[2].proactive_component 	interests_sent[2].proactive_component 	16663
scalar abilene_nodelay_network.node[3].core_layer 	interests[3] 	142334
scalar abilene_nodelay_network.node[3].core_layer 	repo_load[3] 	22568
scalar abilene_nodelay_network.node[3].core_layer 	data[3] 	79576
scalar abilene_nodelay_network.node[3].core_layer 	slots_sent[face$o[1]->client[3]] 	28162197
scalar abilene_nodelay_network.node[3].core_layer 	slots_sent[face$o[2]->node[2]] 	9087635
scalar abilene_nodelay_network.node[3].core_layer 	slots_sent[face$o[3]->node[4]] 	5885520
scalar abilene_nodelay_network.node[3].core_layer 	slots_sent[face$o[4]->node[7]] 	4129007
scalar abilene_nodelay_network.node[3].content_store 	p_hit[3] 	0.28236401703037
scalar abilene_nodelay_network.node[3].content_store 	hits[3] 	40190
scalar abilene_nodelay_network.node[3].content_store 	misses[3] 	102144
scalar abilene_nodelay_network.node[3].content_store 	decision_yes[3] 	79576
scalar abilene_nodelay_network.node[3].content_store 	decision_no[3] 	22568
scalar abilene_nodelay_network.node[3].content_store 	decision_ratio[3] 	0.77905701754386
scalar abilene_nodelay_network.node[3].content_store 	"representation_breakdown[3] 43996:5825:1964:989:3450:" 	0
scalar abilene_nodelay_network.node[3].proactive_component 	hdistance[3].proactive_component 	2.1237139753339
scalar abilene_nodelay_network.node[3].proactive_component 	downloads[3].proactive_component 	15649
scalar abilene_nodelay_network.node[3].proactive_component 	avg_time[3].proactive_component 	0
scalar abilene_nodelay_network.node[3].proactive_component 	interests_sent[3].proactive_component 	15649
scalar abilene_nodelay_network.node[4].core_layer 	interests[4] 	86339
scalar abilene_nodelay_network.node[4].core_layer 	repo_load[4] 	20941
scalar abilene_nodelay_network.node[4].core_layer 	data[4] 	38616
scalar abilene_nodelay_network.node[4].core_layer 	slots_sent[face$o[1]->client[4]] 	26340569
scalar abilene_nodelay_network.node[4].core_layer 	slots_sent[face$o[2]->node[3]] 	5212158
scalar abilene_nodelay_network.node[4].core_layer 	slots_sent[face$o[3]->node[5]] 	3199204
scalar abilene_nodelay_network.node[4].content_store 	p_hit[4] 	0.31019585587046
scalar abilene_nodelay_network.node[4].content_store 	hits[4] 	26782
scalar abilene_nodelay_network.node[4].content_store 	misses[4] 	59557
scalar abilene_nodelay_network.node[4].content_store 	decision_yes[4] 	38616
scalar abilene_nodelay_network.node[4].content_store 	decision_no[4] 	20941
scalar abilene_nodelay_network.node[4].content_store 	decision_ratio[4] 	0.64838725926423
scalar abilene_nodelay_network.node[4].content_store 	"representation_breakdown[4] 23341:2512:871:507:2086:" 	0
scalar abilene_nodelay_network.node[4].proactive_component 	hdistance[4].proactive_component 	1.9301498995518
scalar abilene_nodelay_network.node[4].proactive_component 	downloads[4].proactive_component 	6471
scalar abilene_nodelay_network.node[4].proactive_component 	avg_time[4].proactive_component 	0
scalar abilene_nodelay_network.node[4].proactive_component 	interests_sent[4].proactive_component 	6471
scalar abilene_nodelay_network.node[5].core_layer 	interests[5] 	70365
scalar abilene_nodelay_network.node[5].core_layer 	repo_load[5] 	24218
scalar abilene_nodelay_network.node[5].core_layer 	data[5] 	25006
scalar abilene_nodelay_network.node[5].core_layer 	slots_sent[face$o[1]->client[5]] 	22563808
scalar abilene_nodelay_network.node[5].core_layer 	slots_sent[face$o[2]->node[4]] 	2904692
scalar abilene_nodelay_network.node[5].core_layer 	slots_sent[face$o[3]->node[6]] 	2072511
scalar abilene_nodelay_network.node[5].content_store 	p_hit[5] 	0.30044766574291
scalar abilene_nodelay_network.node[5].content_store 	hits[5] 	21141
scalar abilene_nodelay_network.node[5].content_store 	misses[5] 	49224
scalar abilene_nodelay_network.node[5].content_store 	decision_yes[5] 	25006
scalar abilene_nodelay_network.node[5].content_store 	decision_no[5] 	24218
scalar abilene_nodelay_network.node[5].content_store 	decision_ratio[5] 	0.50800422558102
scalar abilene_nodelay_network.node[5].content_store 	"representation_breakdown[5] 16042:1519:544:322:1316:" 	0
scalar abilene_nodelay_network.node[5].proactive_component 	hdistance[5].proactive_component 	1.9837266069976
scalar abilene_nodelay_network.node[5].proactive_component 	downloads[5].proactive_component 	4916
scalar abilene_nodelay_network.node[5].proactive_component 	avg_time[5].proactive_component 	0
scalar abilene_nodelay_network.node[5].proactive_component 	interests_sent[5].proactive_component 	4916
scalar abilene_nodelay_network.node[6].core_layer 	interests[6] 	78598
scalar abilene_nodelay_network.node[6].core_layer 	repo_load[6] 	21026
scalar abilene_nodelay_network.node[6].core_layer 	data[6] 	31842
scalar abilene_nodelay_network.node[6].core_layer 	slots_sent[face$o[1]->client[6]] 	26050194
scalar abilene_nodelay_network.node[6].core_layer 	slots_sent[face$o[2]->node[5]] 	2260152
scalar abilene_nodelay_network.node[6].core_layer 	slots_sent[face$o[3]->node[7]] 	4483460
scalar abilene_nodelay_network.node[6].content_store 	p_hit[6] 	0.32736201938981
scalar abilene_nodelay_network.node[6].content_store 	hits[6] 	25730
scalar abilene_nodelay_network.node[6].content_store 	misses[6] 	52868
scalar abilene_nodelay_network.node[6].content_store 	decision_yes[6] 	31842
scalar abilene_nodelay_network.node[6].content_store 	decision_no[6] 	21026
scalar abilene_nodelay_network.node[6].content_store 	decision_ratio[6] 	0.60229250208065
scalar abilene_nodelay_network.node[6].content_store 	"representation_breakdown[6] 19554:2102:728:362:1591:" 	0
scalar abilene_nodelay_network.node[6].proactive_component 	hdistance[6].proactive_component 	1.9626941255908
scalar abilene_nodelay_network.node[6].proactive_component 	downloads[6].proactive_component 	5924
scalar abilene_nodelay_network.node[6].proactive_component 	avg_time[6].proactive_component 	0
scalar abilene_nodelay_network.node[6].proactive_component 	interests_sent[6].proactive_component 	5924
scalar abilene_nodelay_network.node[7].core_layer 	interests[7] 	107502
scalar abilene_nodelay_network.node[7].core_layer 	repo_load[7] 	22401
scalar abilene_nodelay_network.node[7].core_layer 	data[7] 	52166
scalar abilene_nodelay_network.node[7].core_layer 	slots_sent[face$o[1]->client[7]] 	27569890
scalar abilene_nodelay_network.node[7].core_layer 	slots_sent[face$o[2]->node[3]] 	3796822
scalar abilene_nodelay_network.node[7].core_layer 	slots_sent[face$o[3]->node[6]] 	4949603
scalar abilene_nodelay_network.node[7].core_layer 	slots_sent[face$o[4]->node[8]] 	3457201
scalar abilene_nodelay_network.node[7].content_store 	p_hit[7] 	0.30636639318338
scalar abilene_nodelay_network.node[7].content_store 	hits[7] 	32935
scalar abilene_nodelay_network.node[7].content_store 	misses[7] 	74567
scalar abilene_nodelay_network.node[7].content_store 	decision_yes[7] 	52166
scalar abilene_nodelay_network.node[7].content_store 	decision_no[7] 	22401
scalar abilene_nodelay_network.node[7].content_store 	decision_ratio[7] 	0.6995856075744
scalar abilene_nodelay_network.node[7].content_store 	"representation_breakdown[7] 30050:3665:1236:658:2598:" 	0
scalar abilene_nodelay_network.node[7].proactive_component 	hdistance[7].proactive_component 	1.9511102639855
scalar abilene_nodelay_network.node[7].proactive_component 	downloads[7].proactive_component 	10493
scalar abilene_nodelay_network.node[7].proactive_component 	avg_time[7].proactive_component 	0
scalar abilene_nodelay_network.node[7].proactive_component 	interests_sent[7].proactive_component 	10493
scalar abilene_nodelay_network.node[8].core_layer 	interests[8] 	102223
scalar abilene_nodelay_network.node[8].core_layer 	repo_load[8] 	21382
scalar abilene_nodelay_network.node[8].core_layer 	data[8] 	48699
scalar abilene_nodelay_network.node[8].core_layer 	slots_sent[face$o[1]->client[8]] 	28022650
scalar abilene_nodelay_network.node[8].core_layer 	slots_sent[face$o[2]->node[2]] 	3226302
scalar abilene_nodelay_network.node[8].core_layer 	slots_sent[face$o[3]->node[7]] 	3328520
scalar abilene_nodelay_network.node[8].core_layer 	slots_sent[face$o[4]->node[9]] 	4445653
scalar abilene_nodelay_network.node[8].content_store 	p_hit[8] 	0.31443021629183
scalar abilene_nodelay_network.node[8].content_store 	hits[8] 	32142
scalar abilene_nodelay_network.node[8].content_store 	misses[8] 	70081
scalar abilene_nodelay_network.node[8].content_store 	decision_yes[8] 	48699
scalar abilene_nodelay_network.node[8].content_store 	decision_no[8] 	21382
scalar abilene_nodelay_network.node[8].content_store 	decision_ratio[8] 	0.69489590616572
scalar abilene_nodelay_network.node[8].content_store 	"representation_breakdown[8] 28262:3386:1155:648:2561:" 	0
scalar abilene_nodelay_network.node[8].proactive_component 	hdistance[8].proactive_component 	1.9147150259067
scalar abilene_nodelay_network.node[8].proactive_component 	downloads[8].proactive_component 	9650
scalar abilene_nodelay_network.node[8].proactive_component 	avg_time[8].proactive_component 	0
scalar abilene_nodelay_network.node[8].proactive_component 	interests_sent[8].proactive_component 	9650
scalar abilene_nodelay_network.node[9].core_layer 	interests[9] 	78319
scalar abilene_nodelay_network.node[9].core_layer 	repo_load[9] 	21693
scalar abilene_nodelay_network.node[9].core_layer 	data[9] 	31832
scalar abilene_nodelay_network.node[9].core_layer 	slots_sent[face$o[1]->client[9]] 	24979990
scalar abilene_nodelay_network.node[9].core_layer 	slots_sent[face$o[2]->node[10]] 	2686428
scalar abilene_nodelay_network.node[9].core_layer 	slots_sent[face$o[3]->node[8]] 	4062123
scalar abilene_nodelay_network.node[9].content_store 	p_hit[9] 	0.31657707580536
scalar abilene_nodelay_network.node[9].content_store 	hits[9] 	24794
scalar abilene_nodelay_network.node[9].content_store 	misses[9] 	53525
scalar abilene_nodelay_network.node[9].content_store 	decision_yes[9] 	31832
scalar abilene_nodelay_network.node[9].content_store 	decision_no[9] 	21693
scalar abilene_nodelay_network.node[9].content_store 	decision_ratio[9] 	0.59471275105091
scalar abilene_nodelay_network.node[9].content_store 	"representation_breakdown[9] 19712:2055:728:391:1537:" 	0
scalar abilene_nodelay_network.node[9].proactive_component 	hdistance[9].proactive_component 	1.9430069338745
scalar abilene_nodelay_network.node[9].proactive_component 	downloads[9].proactive_component 	5913
scalar abilene_nodelay_network.node[9].proactive_component 	avg_time[9].proactive_component 	0
scalar abilene_nodelay_network.node[9].proactive_component 	interests_sent[9].proactive_component 	5913
scalar abilene_nodelay_network.node[10].core_layer 	interests[10] 	76132
scalar abilene_nodelay_network.node[10].core_layer 	repo_load[10] 	23504
scalar abilene_nodelay_network.node[10].core_layer 	data[10] 	28573
scalar abilene_nodelay_network.node[10].core_layer 	slots_sent[face$o[1]->client[10]] 	24279894
scalar abilene_nodelay_network.node[10].core_layer 	slots_sent[face$o[2]->node[0]] 	914427
scalar abilene_nodelay_network.node[10].core_layer 	slots_sent[face$o[3]->node[1]] 	2512433
scalar abilene_nodelay_network.node[10].core_layer 	slots_sent[face$o[4]->node[9]] 	2503933
scalar abilene_nodelay_network.node[10].content_store 	p_hit[10] 	0.31596437765985
scalar abilene_nodelay_network.node[10].content_store 	hits[10] 	24055
scalar abilene_nodelay_network.node[10].content_store 	misses[10] 	52077
scalar abilene_nodelay_network.node[10].content_store 	decision_yes[10] 	28573
scalar abilene_nodelay_network.node[10].content_store 	decision_no[10] 	23504
scalar abilene_nodelay_network.node[10].content_store 	decision_ratio[10] 	0.54866831806748
scalar abilene_nodelay_network.node[10].content_store 	"representation_breakdown[10] 17693:1846:647:367:1470:" 	0
scalar abilene_nodelay_network.node[10].proactive_component 	hdistance[10].proactive_component 	1.9262418464626
scalar abilene_nodelay_network.node[10].proactive_component 	downloads[10].proactive_component 	5979
scalar abilene_nodelay_network.node[10].proactive_component 	avg_time[10].proactive_component 	0
scalar abilene_nodelay_network.node[10].proactive_component 	interests_sent[10].proactive_component 	5979
scalar abilene_nodelay_network.client[0] 	hdistance[0].real 	1.3926035642075
scalar abilene_nodelay_network.client[0] 	downloads[0].real 	42534
scalar abilene_nodelay_network.client[0] 	avg_time[0].real 	0
scalar abilene_nodelay_network.client[0] 	interests_sent[0].real 	42535
scalar abilene_nodelay_network.client[1] 	hdistance[1].real 	1.1118101827131
scalar abilene_nodelay_network.client[1] 	downloads[1].real 	43073
scalar abilene_nodelay_network.client[1] 	avg_time[1].real 	0
scalar abilene_nodelay_network.client[1] 	interests_sent[1].real 	43073
scalar abilene_nodelay_network.client[2] 	hdistance[2].real 	0.95490753249173
scalar abilene_nodelay_network.client[2] 	downloads[2].real 	42934
scalar abilene_nodelay_network.client[2] 	avg_time[2].real 	0
scalar abilene_nodelay_network.client[2] 	interests_sent[2].real 	42934
scalar abilene_nodelay_network.client[3] 	hdistance[3].real 	0.94724547851428
scalar abilene_nodelay_network.client[3] 	downloads[3].real 	43238
scalar abilene_nodelay_network.client[3] 	avg_time[3].real 	0
scalar abilene_nodelay_network.client[3] 	interests_sent[3].real 	43238
scalar abilene_nodelay_network.client[4] 	hdistance[4].real 	1.2199278924943
scalar abilene_nodelay_network.client[4] 	downloads[4].real 	42714
scalar abilene_nodelay_network.client[4] 	avg_time[4].real 	0
scalar abilene_nodelay_network.client[4] 	interests_sent[4].real 	42714
scalar abilene_nodelay_network.client[5] 	hdistance[5].real 	1.4908989598811
scalar abilene_nodelay_network.client[5] 	downloads[5].real 	43072
scalar abilene_nodelay_network.client[5] 	avg_time[5].real 	0
scalar abilene_nodelay_network.client[5] 	interests_sent[5].real 	43072
scalar abilene_nodelay_network.client[6] 	hdistance[6].real 	1.2897538024364
scalar abilene_nodelay_network.client[6] 	downloads[6].real 	42933
scalar abilene_nodelay_network.client[6] 	avg_time[6].real 	0
scalar abilene_nodelay_network.client[6] 	interests_sent[6].real 	42933
scalar abilene_nodelay_network.client[7] 	hdistance[7].real 	1.0159277198212
scalar abilene_nodelay_network.client[7] 	downloads[7].real 	42944
scalar abilene_nodelay_network.client[7] 	avg_time[7].real 	0
scalar abilene_nodelay_network.client[7] 	interests_sent[7].real 	42944
scalar abilene_nodelay_network.client[8] 	hdistance[8].real 	0.98619003260364
scalar abilene_nodelay_network.client[8] 	downloads[8].real 	42940
scalar abilene_nodelay_network.client[8] 	avg_time[8].real 	0
scalar abilene_nodelay_network.client[8] 	interests_sent[8].real 	42940
scalar abilene_nodelay_network.client[9] 	hdistance[9].real 	1.2379845507267
scalar abilene_nodelay_network.client[9] 	downloads[9].real 	42591
scalar abilene_nodelay_network.client[9] 	avg_time[9].real 	0
scalar abilene_nodelay_network.client[9] 	interests_sent[9].real 	42591
scalar abilene_nodelay_network.client[10] 	hdistance[10].real 	1.2965144820815
scalar abilene_nodelay_network.client[10] 	downloads[10].real 	42777
scalar abilene_nodelay_network.client[10] 	avg_time[10].real 	0
scalar abilene_nodelay_network.client[10] 	interests_sent[10].real 	42777
