version 2
run General-0-20150720-20:07:18-24952
attr C 1e6
attr D lce
attr F spr
attr R lru
attr a 1
attr brates 1
attr configname General
attr ctlg 1e8
attr datetime 20150720-20:07:18
attr experiment General
attr inifile omnetpp.ini
attr iterationvars "$net=abilene_nodelay, $rep=0, $lambda=100, $a=1, $ctlg=1e8, $brates=1, $F=spr, $ttl=1000, $D=lce, $R=lru, $C=1e6, $window=60, $variance=0.05, $mytime=180000"
attr iterationvars2 "$net=abilene_nodelay, $rep=0, $lambda=100, $a=1, $ctlg=1e8, $brates=1, $F=spr, $ttl=1000, $D=lce, $R=lru, $C=1e6, $window=60, $variance=0.05, $mytime=180000, $repetition=0"
attr lambda 100
attr measurement "$net=abilene_nodelay, $rep=0, $lambda=100, $a=1, $ctlg=1e8, $brates=1, $F=spr, $ttl=1000, $D=lce, $R=lru, $C=1e6, $window=60, $variance=0.05, $mytime=180000"
attr mytime 180000
attr net abilene_nodelay
attr network networks.${net=abilene_nodelay}_network
attr processid 24952
attr rep 0
attr repetition 0
attr replication #0
attr resultdir results
attr runnumber 0
attr seedset 0
attr ttl 1000
attr variance 0.05
attr window 60

scalar . 	C 	1e6
scalar . 	a 	1
scalar . 	brates 	1
scalar . 	ctlg 	1e8
scalar . 	lambda 	100
scalar . 	mytime 	180000
scalar . 	rep 	0
scalar . 	ttl 	1000
scalar . 	variance 	0.05
scalar . 	window 	60
scalar abilene_nodelay_network.content_distribution 	repo-0 	5
scalar abilene_nodelay_network.content_distribution 	repo-1 	8
scalar abilene_nodelay_network.content_distribution 	repo-2 	9
scalar abilene_nodelay_network.content_distribution 	repo-3 	0
scalar abilene_nodelay_network.content_distribution 	repo-4 	1
scalar abilene_nodelay_network.content_distribution 	repo-5 	7
scalar abilene_nodelay_network.content_distribution 	repo-6 	6
scalar abilene_nodelay_network.content_distribution 	repo-7 	2
scalar abilene_nodelay_network.content_distribution 	repo-8 	4
scalar abilene_nodelay_network.content_distribution 	repo-9 	10
scalar abilene_nodelay_network.content_distribution 	repo-10 	3
scalar abilene_nodelay_network.content_distribution 	client-0 	10
scalar abilene_nodelay_network.content_distribution 	client-1 	9
scalar abilene_nodelay_network.content_distribution 	client-2 	8
scalar abilene_nodelay_network.content_distribution 	client-3 	7
scalar abilene_nodelay_network.content_distribution 	client-4 	3
scalar abilene_nodelay_network.content_distribution 	client-5 	6
scalar abilene_nodelay_network.content_distribution 	client-6 	5
scalar abilene_nodelay_network.content_distribution 	client-7 	1
scalar abilene_nodelay_network.content_distribution 	client-8 	4
scalar abilene_nodelay_network.content_distribution 	client-9 	0
scalar abilene_nodelay_network.content_distribution 	client-10 	2
scalar abilene_nodelay_network.content_distribution 	repo-0_card 	9095979
scalar abilene_nodelay_network.content_distribution 	repo-0_price 	0
scalar abilene_nodelay_network.content_distribution 	repo-1_card 	9088625
scalar abilene_nodelay_network.content_distribution 	repo-1_price 	0
scalar abilene_nodelay_network.content_distribution 	repo-2_card 	9091688
scalar abilene_nodelay_network.content_distribution 	repo-2_price 	0
scalar abilene_nodelay_network.content_distribution 	repo-3_card 	9088505
scalar abilene_nodelay_network.content_distribution 	repo-3_price 	0
scalar abilene_nodelay_network.content_distribution 	repo-4_card 	9088374
scalar abilene_nodelay_network.content_distribution 	repo-4_price 	0
scalar abilene_nodelay_network.content_distribution 	repo-5_card 	9091947
scalar abilene_nodelay_network.content_distribution 	repo-5_price 	0
scalar abilene_nodelay_network.content_distribution 	repo-6_card 	9088127
scalar abilene_nodelay_network.content_distribution 	repo-6_price 	0
scalar abilene_nodelay_network.content_distribution 	repo-7_card 	9091123
scalar abilene_nodelay_network.content_distribution 	repo-7_price 	0
scalar abilene_nodelay_network.content_distribution 	repo-8_card 	9090920
scalar abilene_nodelay_network.content_distribution 	repo-8_price 	0
scalar abilene_nodelay_network.content_distribution 	repo-9_card 	9093199
scalar abilene_nodelay_network.content_distribution 	repo-9_price 	0
scalar abilene_nodelay_network.content_distribution 	repo-10_card 	9091513
scalar abilene_nodelay_network.content_distribution 	repo-10_price 	0
scalar abilene_nodelay_network.statistics 	stabilization_time 	30558.2
scalar abilene_nodelay_network.statistics 	p_hit 	0.37686138180645
scalar abilene_nodelay_network.statistics 	interests 	30542284.272727
scalar abilene_nodelay_network.statistics 	data 	12542092
scalar abilene_nodelay_network.statistics 	hdistance 	1.0573276851568
scalar abilene_nodelay_network.statistics 	avg_time 	0
scalar abilene_nodelay_network.statistics 	downloads 	198002115
scalar abilene_nodelay_network.statistics 	total_cost 	0
scalar abilene_nodelay_network.statistics 	total_replicas 	100000000
scalar abilene_nodelay_network.statistics 	"representations_downloaded 1:" 	0
scalar abilene_nodelay_network.statistics 	"slots_per_representation 100:" 	0
scalar abilene_nodelay_network.statistics 	inner_hit 	0.63944913921753
scalar abilene_nodelay_network.statistics 	execution_time 	7821
scalar abilene_nodelay_network.node[0].core_layer 	interests[0] 	22618800
scalar abilene_nodelay_network.node[0].core_layer 	repo_load[0] 	6032310
scalar abilene_nodelay_network.node[0].core_layer 	data[0] 	5488200
scalar abilene_nodelay_network.node[0].core_layer 	slots_sent[face$o[1]->client[0]] 	1800271000
scalar abilene_nodelay_network.node[0].core_layer 	slots_sent[face$o[2]->node[1]] 	359196100
scalar abilene_nodelay_network.node[0].core_layer 	slots_sent[face$o[3]->node[10]] 	102412900
scalar abilene_nodelay_network.node[0].content_store 	p_hit[0] 	0.49066661361345
scalar abilene_nodelay_network.node[0].content_store 	hits[0] 	11098290
scalar abilene_nodelay_network.node[0].content_store 	misses[0] 	11520510
scalar abilene_nodelay_network.node[0].content_store 	decision_yes[0] 	5488200
scalar abilene_nodelay_network.node[0].content_store 	decision_no[0] 	6032310
scalar abilene_nodelay_network.node[0].content_store 	decision_ratio[0] 	0.47638516003198
scalar abilene_nodelay_network.node[1].core_layer 	interests[1] 	34641271
scalar abilene_nodelay_network.node[1].core_layer 	repo_load[1] 	6821478
scalar abilene_nodelay_network.node[1].core_layer 	data[1] 	16308700
scalar abilene_nodelay_network.node[1].core_layer 	slots_sent[face$o[1]->client[1]] 	1799592300
scalar abilene_nodelay_network.node[1].core_layer 	slots_sent[face$o[2]->node[0]] 	438934800
scalar abilene_nodelay_network.node[1].core_layer 	slots_sent[face$o[3]->node[10]] 	332428200
scalar abilene_nodelay_network.node[1].core_layer 	slots_sent[face$o[4]->node[2]] 	893171800
scalar abilene_nodelay_network.node[1].content_store 	p_hit[1] 	0.33229418747366
scalar abilene_nodelay_network.node[1].content_store 	hits[1] 	11511093
scalar abilene_nodelay_network.node[1].content_store 	misses[1] 	23130178
scalar abilene_nodelay_network.node[1].content_store 	decision_yes[1] 	16308700
scalar abilene_nodelay_network.node[1].content_store 	decision_no[1] 	6821478
scalar abilene_nodelay_network.node[1].content_store 	decision_ratio[1] 	0.70508320342368
scalar abilene_nodelay_network.node[2].core_layer 	interests[2] 	43732224
scalar abilene_nodelay_network.node[2].core_layer 	repo_load[2] 	7174871
scalar abilene_nodelay_network.node[2].core_layer 	data[2] 	24550140
scalar abilene_nodelay_network.node[2].core_layer 	slots_sent[face$o[1]->client[2]] 	1800190100
scalar abilene_nodelay_network.node[2].core_layer 	slots_sent[face$o[2]->node[1]] 	963123800
scalar abilene_nodelay_network.node[2].core_layer 	slots_sent[face$o[3]->node[3]] 	1153262500
scalar abilene_nodelay_network.node[2].core_layer 	slots_sent[face$o[4]->node[8]] 	456646000
scalar abilene_nodelay_network.node[2].content_store 	p_hit[2] 	0.27456213980794
scalar abilene_nodelay_network.node[2].content_store 	hits[2] 	12007213
scalar abilene_nodelay_network.node[2].content_store 	misses[2] 	31725011
scalar abilene_nodelay_network.node[2].content_store 	decision_yes[2] 	24550140
scalar abilene_nodelay_network.node[2].content_store 	decision_no[2] 	7174871
scalar abilene_nodelay_network.node[2].content_store 	decision_ratio[2] 	0.7738418120643
scalar abilene_nodelay_network.node[3].core_layer 	interests[3] 	41545729
scalar abilene_nodelay_network.node[3].core_layer 	repo_load[3] 	6606294
scalar abilene_nodelay_network.node[3].core_layer 	data[3] 	22539011
scalar abilene_nodelay_network.node[3].core_layer 	slots_sent[face$o[1]->client[3]] 	1799973200
scalar abilene_nodelay_network.node[3].core_layer 	slots_sent[face$o[2]->node[2]] 	1133444900
scalar abilene_nodelay_network.node[3].core_layer 	slots_sent[face$o[3]->node[4]] 	711344500
scalar abilene_nodelay_network.node[3].core_layer 	slots_sent[face$o[4]->node[7]] 	509810300
scalar abilene_nodelay_network.node[3].content_store 	p_hit[3] 	0.2984765052504
scalar abilene_nodelay_network.node[3].content_store 	hits[3] 	12400424
scalar abilene_nodelay_network.node[3].content_store 	misses[3] 	29145305
scalar abilene_nodelay_network.node[3].content_store 	decision_yes[3] 	22539011
scalar abilene_nodelay_network.node[3].content_store 	decision_no[3] 	6606294
scalar abilene_nodelay_network.node[3].content_store 	decision_ratio[3] 	0.77333248013702
scalar abilene_nodelay_network.node[4].core_layer 	interests[4] 	28125065
scalar abilene_nodelay_network.node[4].core_layer 	repo_load[4] 	6210423
scalar abilene_nodelay_network.node[4].core_layer 	data[4] 	10363188
scalar abilene_nodelay_network.node[4].core_layer 	slots_sent[face$o[1]->client[4]] 	1799759500
scalar abilene_nodelay_network.node[4].core_layer 	slots_sent[face$o[2]->node[3]] 	631372900
scalar abilene_nodelay_network.node[4].core_layer 	slots_sent[face$o[3]->node[5]] 	381374100
scalar abilene_nodelay_network.node[4].content_store 	p_hit[4] 	0.41071741523086
scalar abilene_nodelay_network.node[4].content_store 	hits[4] 	11551454
scalar abilene_nodelay_network.node[4].content_store 	misses[4] 	16573611
scalar abilene_nodelay_network.node[4].content_store 	decision_yes[4] 	10363188
scalar abilene_nodelay_network.node[4].content_store 	decision_no[4] 	6210423
scalar abilene_nodelay_network.node[4].content_store 	decision_ratio[4] 	0.62528244448358
scalar abilene_nodelay_network.node[5].core_layer 	interests[5] 	23673955
scalar abilene_nodelay_network.node[5].core_layer 	repo_load[5] 	6851093
scalar abilene_nodelay_network.node[5].core_layer 	data[5] 	6501197
scalar abilene_nodelay_network.node[5].core_layer 	slots_sent[face$o[1]->client[5]] 	1799815300
scalar abilene_nodelay_network.node[5].core_layer 	slots_sent[face$o[2]->node[4]] 	324974300
scalar abilene_nodelay_network.node[5].core_layer 	slots_sent[face$o[3]->node[6]] 	242605900
scalar abilene_nodelay_network.node[5].content_store 	p_hit[5] 	0.43599242289681
scalar abilene_nodelay_network.node[5].content_store 	hits[5] 	10321665
scalar abilene_nodelay_network.node[5].content_store 	misses[5] 	13352290
scalar abilene_nodelay_network.node[5].content_store 	decision_yes[5] 	6501197
scalar abilene_nodelay_network.node[5].content_store 	decision_no[5] 	6851093
scalar abilene_nodelay_network.node[5].content_store 	decision_ratio[5] 	0.48689752843894
scalar abilene_nodelay_network.node[6].core_layer 	interests[6] 	25788317
scalar abilene_nodelay_network.node[6].core_layer 	repo_load[6] 	5979041
scalar abilene_nodelay_network.node[6].core_layer 	data[6] 	8453508
scalar abilene_nodelay_network.node[6].core_layer 	slots_sent[face$o[1]->client[6]] 	1800366100
scalar abilene_nodelay_network.node[6].core_layer 	slots_sent[face$o[2]->node[5]] 	268745600
scalar abilene_nodelay_network.node[6].core_layer 	slots_sent[face$o[3]->node[7]] 	509720000
scalar abilene_nodelay_network.node[6].content_store 	p_hit[6] 	0.44034544790185
scalar abilene_nodelay_network.node[6].content_store 	hits[6] 	11355768
scalar abilene_nodelay_network.node[6].content_store 	misses[6] 	14432549
scalar abilene_nodelay_network.node[6].content_store 	decision_yes[6] 	8453508
scalar abilene_nodelay_network.node[6].content_store 	decision_no[6] 	5979041
scalar abilene_nodelay_network.node[6].content_store 	decision_ratio[6] 	0.58572522428297
scalar abilene_nodelay_network.node[7].core_layer 	interests[7] 	32878428
scalar abilene_nodelay_network.node[7].core_layer 	repo_load[7] 	6467695
scalar abilene_nodelay_network.node[7].core_layer 	data[7] 	14370180
scalar abilene_nodelay_network.node[7].core_layer 	slots_sent[face$o[1]->client[7]] 	1800046800
scalar abilene_nodelay_network.node[7].core_layer 	slots_sent[face$o[2]->node[3]] 	469265700
scalar abilene_nodelay_network.node[7].core_layer 	slots_sent[face$o[3]->node[6]] 	602744900
scalar abilene_nodelay_network.node[7].core_layer 	slots_sent[face$o[4]->node[8]] 	415785400
scalar abilene_nodelay_network.node[7].content_store 	p_hit[7] 	0.36621437618611
scalar abilene_nodelay_network.node[7].content_store 	hits[7] 	12040553
scalar abilene_nodelay_network.node[7].content_store 	misses[7] 	20837875
scalar abilene_nodelay_network.node[7].content_store 	decision_yes[7] 	14370180
scalar abilene_nodelay_network.node[7].content_store 	decision_no[7] 	6467695
scalar abilene_nodelay_network.node[7].content_store 	decision_ratio[7] 	0.6896183032099
scalar abilene_nodelay_network.node[8].core_layer 	interests[8] 	31917874
scalar abilene_nodelay_network.node[8].core_layer 	repo_load[8] 	6415296
scalar abilene_nodelay_network.node[8].core_layer 	data[8] 	13425576
scalar abilene_nodelay_network.node[8].core_layer 	slots_sent[face$o[1]->client[8]] 	1800122200
scalar abilene_nodelay_network.node[8].core_layer 	slots_sent[face$o[2]->node[2]] 	428397300
scalar abilene_nodelay_network.node[8].core_layer 	slots_sent[face$o[3]->node[7]] 	417487700
scalar abilene_nodelay_network.node[8].core_layer 	slots_sent[face$o[4]->node[9]] 	545780200
scalar abilene_nodelay_network.node[8].content_store 	p_hit[8] 	0.37837739443423
scalar abilene_nodelay_network.node[8].content_store 	hits[8] 	12077002
scalar abilene_nodelay_network.node[8].content_store 	misses[8] 	19840872
scalar abilene_nodelay_network.node[8].content_store 	decision_yes[8] 	13425576
scalar abilene_nodelay_network.node[8].content_store 	decision_no[8] 	6415296
scalar abilene_nodelay_network.node[8].content_store 	decision_ratio[8] 	0.67666259829709
scalar abilene_nodelay_network.node[9].core_layer 	interests[9] 	25846161
scalar abilene_nodelay_network.node[9].core_layer 	repo_load[9] 	6143756
scalar abilene_nodelay_network.node[9].core_layer 	data[9] 	8470199
scalar abilene_nodelay_network.node[9].core_layer 	slots_sent[face$o[1]->client[9]] 	1800019700
scalar abilene_nodelay_network.node[9].core_layer 	slots_sent[face$o[2]->node[10]] 	314470200
scalar abilene_nodelay_network.node[9].core_layer 	slots_sent[face$o[3]->node[8]] 	470126200
scalar abilene_nodelay_network.node[9].content_store 	p_hit[9] 	0.43457927852419
scalar abilene_nodelay_network.node[9].content_store 	hits[9] 	11232206
scalar abilene_nodelay_network.node[9].content_store 	misses[9] 	14613955
scalar abilene_nodelay_network.node[9].content_store 	decision_yes[9] 	8470199
scalar abilene_nodelay_network.node[9].content_store 	decision_no[9] 	6143756
scalar abilene_nodelay_network.node[9].content_store 	decision_ratio[9] 	0.57959662528043
scalar abilene_nodelay_network.node[10].core_layer 	interests[10] 	25197303
scalar abilene_nodelay_network.node[10].core_layer 	repo_load[10] 	6687576
scalar abilene_nodelay_network.node[10].core_layer 	data[10] 	7493113
scalar abilene_nodelay_network.node[10].core_layer 	slots_sent[face$o[1]->client[10]] 	1800055300
scalar abilene_nodelay_network.node[10].core_layer 	slots_sent[face$o[2]->node[0]] 	109885200
scalar abilene_nodelay_network.node[10].core_layer 	slots_sent[face$o[3]->node[1]] 	308550100
scalar abilene_nodelay_network.node[10].core_layer 	slots_sent[face$o[4]->node[9]] 	301239700
scalar abilene_nodelay_network.node[10].content_store 	p_hit[10] 	0.43721401453163
scalar abilene_nodelay_network.node[10].content_store 	hits[10] 	11016614
scalar abilene_nodelay_network.node[10].content_store 	misses[10] 	14180689
scalar abilene_nodelay_network.node[10].content_store 	decision_yes[10] 	7493113
scalar abilene_nodelay_network.node[10].content_store 	decision_no[10] 	6687576
scalar abilene_nodelay_network.node[10].content_store 	decision_ratio[10] 	0.52840260441506
scalar abilene_nodelay_network.client[0] 	hdistance[0].real 	1.1550767078958
scalar abilene_nodelay_network.client[0] 	downloads[0].real 	18002710
scalar abilene_nodelay_network.client[0] 	avg_time[0].real 	0
scalar abilene_nodelay_network.client[1] 	hdistance[1].real 	1.0676568798388
scalar abilene_nodelay_network.client[1] 	downloads[1].real 	17995923
scalar abilene_nodelay_network.client[1] 	avg_time[1].real 	0
scalar abilene_nodelay_network.client[2] 	hdistance[2].real 	0.97655786463885
scalar abilene_nodelay_network.client[2] 	downloads[2].real 	18001901
scalar abilene_nodelay_network.client[2] 	avg_time[2].real 	0
scalar abilene_nodelay_network.client[3] 	hdistance[3].real 	0.97362727400609
scalar abilene_nodelay_network.client[3] 	downloads[3].real 	17999732
scalar abilene_nodelay_network.client[3] 	avg_time[3].real 	0
scalar abilene_nodelay_network.client[4] 	hdistance[4].real 	1.0990237306706
scalar abilene_nodelay_network.client[4] 	downloads[4].real 	17997595
scalar abilene_nodelay_network.client[4] 	avg_time[4].real 	0
scalar abilene_nodelay_network.client[5] 	hdistance[5].real 	1.210615222573
scalar abilene_nodelay_network.client[5] 	downloads[5].real 	17998153
scalar abilene_nodelay_network.client[5] 	avg_time[5].real 	0
scalar abilene_nodelay_network.client[6] 	hdistance[6].real 	1.1108197938188
scalar abilene_nodelay_network.client[6] 	downloads[6].real 	18003661
scalar abilene_nodelay_network.client[6] 	avg_time[6].real 	0
scalar abilene_nodelay_network.client[7] 	hdistance[7].real 	0.96787094646652
scalar abilene_nodelay_network.client[7] 	downloads[7].real 	18000468
scalar abilene_nodelay_network.client[7] 	avg_time[7].real 	0
scalar abilene_nodelay_network.client[8] 	hdistance[8].real 	0.93200567161495
scalar abilene_nodelay_network.client[8] 	downloads[8].real 	18001222
scalar abilene_nodelay_network.client[8] 	avg_time[8].real 	0
scalar abilene_nodelay_network.client[9] 	hdistance[9].real 	1.0420460953846
scalar abilene_nodelay_network.client[9] 	downloads[9].real 	18000197
scalar abilene_nodelay_network.client[9] 	avg_time[9].real 	0
scalar abilene_nodelay_network.client[10] 	hdistance[10].real 	1.0953043498164
scalar abilene_nodelay_network.client[10] 	downloads[10].real 	18000553
scalar abilene_nodelay_network.client[10] 	avg_time[10].real 	0
