version 2
run General-4-20150720-20:07:18-24956
attr C 1e6
attr D lce
attr F spr
attr R lru
attr a 1
attr brates 1
attr configname General
attr ctlg 1e8
attr datetime 20150720-20:07:18
attr experiment General
attr inifile omnetpp.ini
attr iterationvars "$net=abilene_nodelay, $rep=2, $lambda=100, $a=1, $ctlg=1e8, $brates=1, $F=spr, $ttl=1000, $D=lce, $R=lru, $C=1e6, $window=60, $variance=0.05, $mytime=180000"
attr iterationvars2 "$net=abilene_nodelay, $rep=2, $lambda=100, $a=1, $ctlg=1e8, $brates=1, $F=spr, $ttl=1000, $D=lce, $R=lru, $C=1e6, $window=60, $variance=0.05, $mytime=180000, $repetition=0"
attr lambda 100
attr measurement "$net=abilene_nodelay, $rep=2, $lambda=100, $a=1, $ctlg=1e8, $brates=1, $F=spr, $ttl=1000, $D=lce, $R=lru, $C=1e6, $window=60, $variance=0.05, $mytime=180000"
attr mytime 180000
attr net abilene_nodelay
attr network networks.${net=abilene_nodelay}_network
attr processid 24956
attr rep 2
attr repetition 0
attr replication #0
attr resultdir results
attr runnumber 4
attr seedset 2
attr ttl 1000
attr variance 0.05
attr window 60

scalar . 	C 	1e6
scalar . 	a 	1
scalar . 	brates 	1
scalar . 	ctlg 	1e8
scalar . 	lambda 	100
scalar . 	mytime 	180000
scalar . 	rep 	2
scalar . 	ttl 	1000
scalar . 	variance 	0.05
scalar . 	window 	60
scalar abilene_nodelay_network.content_distribution 	repo-0 	4
scalar abilene_nodelay_network.content_distribution 	repo-1 	9
scalar abilene_nodelay_network.content_distribution 	repo-2 	6
scalar abilene_nodelay_network.content_distribution 	repo-3 	3
scalar abilene_nodelay_network.content_distribution 	repo-4 	7
scalar abilene_nodelay_network.content_distribution 	repo-5 	8
scalar abilene_nodelay_network.content_distribution 	repo-6 	10
scalar abilene_nodelay_network.content_distribution 	repo-7 	0
scalar abilene_nodelay_network.content_distribution 	repo-8 	5
scalar abilene_nodelay_network.content_distribution 	repo-9 	2
scalar abilene_nodelay_network.content_distribution 	repo-10 	1
scalar abilene_nodelay_network.content_distribution 	client-0 	0
scalar abilene_nodelay_network.content_distribution 	client-1 	6
scalar abilene_nodelay_network.content_distribution 	client-2 	7
scalar abilene_nodelay_network.content_distribution 	client-3 	10
scalar abilene_nodelay_network.content_distribution 	client-4 	9
scalar abilene_nodelay_network.content_distribution 	client-5 	3
scalar abilene_nodelay_network.content_distribution 	client-6 	5
scalar abilene_nodelay_network.content_distribution 	client-7 	4
scalar abilene_nodelay_network.content_distribution 	client-8 	1
scalar abilene_nodelay_network.content_distribution 	client-9 	2
scalar abilene_nodelay_network.content_distribution 	client-10 	8
scalar abilene_nodelay_network.content_distribution 	repo-0_card 	9087551
scalar abilene_nodelay_network.content_distribution 	repo-0_price 	0
scalar abilene_nodelay_network.content_distribution 	repo-1_card 	9091215
scalar abilene_nodelay_network.content_distribution 	repo-1_price 	0
scalar abilene_nodelay_network.content_distribution 	repo-2_card 	9091824
scalar abilene_nodelay_network.content_distribution 	repo-2_price 	0
scalar abilene_nodelay_network.content_distribution 	repo-3_card 	9094649
scalar abilene_nodelay_network.content_distribution 	repo-3_price 	0
scalar abilene_nodelay_network.content_distribution 	repo-4_card 	9089477
scalar abilene_nodelay_network.content_distribution 	repo-4_price 	0
scalar abilene_nodelay_network.content_distribution 	repo-5_card 	9089387
scalar abilene_nodelay_network.content_distribution 	repo-5_price 	0
scalar abilene_nodelay_network.content_distribution 	repo-6_card 	9091160
scalar abilene_nodelay_network.content_distribution 	repo-6_price 	0
scalar abilene_nodelay_network.content_distribution 	repo-7_card 	9083168
scalar abilene_nodelay_network.content_distribution 	repo-7_price 	0
scalar abilene_nodelay_network.content_distribution 	repo-8_card 	9096171
scalar abilene_nodelay_network.content_distribution 	repo-8_price 	0
scalar abilene_nodelay_network.content_distribution 	repo-9_card 	9093129
scalar abilene_nodelay_network.content_distribution 	repo-9_price 	0
scalar abilene_nodelay_network.content_distribution 	repo-10_card 	9092269
scalar abilene_nodelay_network.content_distribution 	repo-10_price 	0
scalar abilene_nodelay_network.statistics 	stabilization_time 	30511.2
scalar abilene_nodelay_network.statistics 	p_hit 	0.37687935774715
scalar abilene_nodelay_network.statistics 	interests 	30540710.272727
scalar abilene_nodelay_network.statistics 	data 	12541263.181818
scalar abilene_nodelay_network.statistics 	hdistance 	1.0572864134476
scalar abilene_nodelay_network.statistics 	avg_time 	0
scalar abilene_nodelay_network.statistics 	downloads 	197993918
scalar abilene_nodelay_network.statistics 	total_cost 	0
scalar abilene_nodelay_network.statistics 	total_replicas 	100000000
scalar abilene_nodelay_network.statistics 	"representations_downloaded 1:" 	0
scalar abilene_nodelay_network.statistics 	"slots_per_representation 100:" 	0
scalar abilene_nodelay_network.statistics 	inner_hit 	0.63947315795832
scalar abilene_nodelay_network.statistics 	execution_time 	39942
scalar abilene_nodelay_network.node[0].core_layer 	interests[0] 	22612526
scalar abilene_nodelay_network.node[0].core_layer 	repo_load[0] 	6386908
scalar abilene_nodelay_network.node[0].core_layer 	data[0] 	5484383
scalar abilene_nodelay_network.node[0].core_layer 	slots_sent[face$o[1]->client[0]] 	1799359500
scalar abilene_nodelay_network.node[0].core_layer 	slots_sent[face$o[2]->node[1]] 	359396800
scalar abilene_nodelay_network.node[0].core_layer 	slots_sent[face$o[3]->node[10]] 	102496300
scalar abilene_nodelay_network.node[0].content_store 	p_hit[0] 	0.47501261026742
scalar abilene_nodelay_network.node[0].content_store 	hits[0] 	10741235
scalar abilene_nodelay_network.node[0].content_store 	misses[0] 	11871291
scalar abilene_nodelay_network.node[0].content_store 	decision_yes[0] 	5484383
scalar abilene_nodelay_network.node[0].content_store 	decision_no[0] 	6386908
scalar abilene_nodelay_network.node[0].content_store 	decision_ratio[0] 	0.46198707453132
scalar abilene_nodelay_network.node[1].core_layer 	interests[1] 	34647564
scalar abilene_nodelay_network.node[1].core_layer 	repo_load[1] 	7817515
scalar abilene_nodelay_network.node[1].core_layer 	data[1] 	16307515
scalar abilene_nodelay_network.node[1].core_layer 	slots_sent[face$o[1]->client[1]] 	1800233200
scalar abilene_nodelay_network.node[1].core_layer 	slots_sent[face$o[2]->node[0]] 	438758500
scalar abilene_nodelay_network.node[1].core_layer 	slots_sent[face$o[3]->node[10]] 	332585400
scalar abilene_nodelay_network.node[1].core_layer 	slots_sent[face$o[4]->node[2]] 	893179300
scalar abilene_nodelay_network.node[1].content_store 	p_hit[1] 	0.30370198609057
scalar abilene_nodelay_network.node[1].content_store 	hits[1] 	10522534
scalar abilene_nodelay_network.node[1].content_store 	misses[1] 	24125030
scalar abilene_nodelay_network.node[1].content_store 	decision_yes[1] 	16307515
scalar abilene_nodelay_network.node[1].content_store 	decision_no[1] 	7817515
scalar abilene_nodelay_network.node[1].content_store 	decision_ratio[1] 	0.67595833041451
scalar abilene_nodelay_network.node[2].core_layer 	interests[2] 	43736538
scalar abilene_nodelay_network.node[2].core_layer 	repo_load[2] 	6596724
scalar abilene_nodelay_network.node[2].core_layer 	data[2] 	24558753
scalar abilene_nodelay_network.node[2].core_layer 	slots_sent[face$o[1]->client[2]] 	1799810700
scalar abilene_nodelay_network.node[2].core_layer 	slots_sent[face$o[2]->node[1]] 	963475100
scalar abilene_nodelay_network.node[2].core_layer 	slots_sent[face$o[3]->node[3]] 	1153434500
scalar abilene_nodelay_network.node[2].core_layer 	slots_sent[face$o[4]->node[8]] 	456933500
scalar abilene_nodelay_network.node[2].content_store 	p_hit[2] 	0.28765562102789
scalar abilene_nodelay_network.node[2].content_store 	hits[2] 	12581061
scalar abilene_nodelay_network.node[2].content_store 	misses[2] 	31155477
scalar abilene_nodelay_network.node[2].content_store 	decision_yes[2] 	24558753
scalar abilene_nodelay_network.node[2].content_store 	decision_no[2] 	6596724
scalar abilene_nodelay_network.node[2].content_store 	decision_ratio[2] 	0.78826438767091
scalar abilene_nodelay_network.node[3].core_layer 	interests[3] 	41545276
scalar abilene_nodelay_network.node[3].core_layer 	repo_load[3] 	6460046
scalar abilene_nodelay_network.node[3].core_layer 	data[3] 	22539308
scalar abilene_nodelay_network.node[3].core_layer 	slots_sent[face$o[1]->client[3]] 	1800100500
scalar abilene_nodelay_network.node[3].core_layer 	slots_sent[face$o[2]->node[2]] 	1133549800
scalar abilene_nodelay_network.node[3].core_layer 	slots_sent[face$o[3]->node[4]] 	711426900
scalar abilene_nodelay_network.node[3].core_layer 	slots_sent[face$o[4]->node[7]] 	509450400
scalar abilene_nodelay_network.node[3].content_store 	p_hit[3] 	0.3019819148632
scalar abilene_nodelay_network.node[3].content_store 	hits[3] 	12545922
scalar abilene_nodelay_network.node[3].content_store 	misses[3] 	28999354
scalar abilene_nodelay_network.node[3].content_store 	decision_yes[3] 	22539308
scalar abilene_nodelay_network.node[3].content_store 	decision_no[3] 	6460046
scalar abilene_nodelay_network.node[3].content_store 	decision_ratio[3] 	0.77723483081727
scalar abilene_nodelay_network.node[4].core_layer 	interests[4] 	28133403
scalar abilene_nodelay_network.node[4].core_layer 	repo_load[4] 	6163717
scalar abilene_nodelay_network.node[4].core_layer 	data[4] 	10357543
scalar abilene_nodelay_network.node[4].core_layer 	slots_sent[face$o[1]->client[4]] 	1800199100
scalar abilene_nodelay_network.node[4].core_layer 	slots_sent[face$o[2]->node[3]] 	631615200
scalar abilene_nodelay_network.node[4].core_layer 	slots_sent[face$o[3]->node[5]] 	381526000
scalar abilene_nodelay_network.node[4].content_store 	p_hit[4] 	0.41275287600295
scalar abilene_nodelay_network.node[4].content_store 	hits[4] 	11612143
scalar abilene_nodelay_network.node[4].content_store 	misses[4] 	16521260
scalar abilene_nodelay_network.node[4].content_store 	decision_yes[4] 	10357543
scalar abilene_nodelay_network.node[4].content_store 	decision_no[4] 	6163717
scalar abilene_nodelay_network.node[4].content_store 	decision_ratio[4] 	0.62692209916193
scalar abilene_nodelay_network.node[5].core_layer 	interests[5] 	23666382
scalar abilene_nodelay_network.node[5].core_layer 	repo_load[5] 	5898813
scalar abilene_nodelay_network.node[5].core_layer 	data[5] 	6502608
scalar abilene_nodelay_network.node[5].core_layer 	slots_sent[face$o[1]->client[5]] 	1799737100
scalar abilene_nodelay_network.node[5].core_layer 	slots_sent[face$o[2]->node[4]] 	324327400
scalar abilene_nodelay_network.node[5].core_layer 	slots_sent[face$o[3]->node[6]] 	242573700
scalar abilene_nodelay_network.node[5].content_store 	p_hit[5] 	0.47598999289372
scalar abilene_nodelay_network.node[5].content_store 	hits[5] 	11264961
scalar abilene_nodelay_network.node[5].content_store 	misses[5] 	12401421
scalar abilene_nodelay_network.node[5].content_store 	decision_yes[5] 	6502608
scalar abilene_nodelay_network.node[5].content_store 	decision_no[5] 	5898813
scalar abilene_nodelay_network.node[5].content_store 	decision_ratio[5] 	0.52434378286166
scalar abilene_nodelay_network.node[6].core_layer 	interests[6] 	25784312
scalar abilene_nodelay_network.node[6].core_layer 	repo_load[6] 	6022955
scalar abilene_nodelay_network.node[6].core_layer 	data[6] 	8447312
scalar abilene_nodelay_network.node[6].core_layer 	slots_sent[face$o[1]->client[6]] 	1799730200
scalar abilene_nodelay_network.node[6].core_layer 	slots_sent[face$o[2]->node[5]] 	268734800
scalar abilene_nodelay_network.node[6].core_layer 	slots_sent[face$o[3]->node[7]] 	509966200
scalar abilene_nodelay_network.node[6].content_store 	p_hit[6] 	0.43879569096123
scalar abilene_nodelay_network.node[6].content_store 	hits[6] 	11314045
scalar abilene_nodelay_network.node[6].content_store 	misses[6] 	14470267
scalar abilene_nodelay_network.node[6].content_store 	decision_yes[6] 	8447312
scalar abilene_nodelay_network.node[6].content_store 	decision_no[6] 	6022955
scalar abilene_nodelay_network.node[6].content_store 	decision_ratio[6] 	0.58377029255922
scalar abilene_nodelay_network.node[7].core_layer 	interests[7] 	32863963
scalar abilene_nodelay_network.node[7].core_layer 	repo_load[7] 	6505679
scalar abilene_nodelay_network.node[7].core_layer 	data[7] 	14371205
scalar abilene_nodelay_network.node[7].core_layer 	slots_sent[face$o[1]->client[7]] 	1799969100
scalar abilene_nodelay_network.node[7].core_layer 	slots_sent[face$o[2]->node[3]] 	468881100
scalar abilene_nodelay_network.node[7].core_layer 	slots_sent[face$o[3]->node[6]] 	602157500
scalar abilene_nodelay_network.node[7].core_layer 	slots_sent[face$o[4]->node[8]] 	415388600
scalar abilene_nodelay_network.node[7].content_store 	p_hit[7] 	0.36474843280465
scalar abilene_nodelay_network.node[7].content_store 	hits[7] 	11987079
scalar abilene_nodelay_network.node[7].content_store 	misses[7] 	20876884
scalar abilene_nodelay_network.node[7].content_store 	decision_yes[7] 	14371205
scalar abilene_nodelay_network.node[7].content_store 	decision_no[7] 	6505679
scalar abilene_nodelay_network.node[7].content_store 	decision_ratio[7] 	0.68837883086384
scalar abilene_nodelay_network.node[8].core_layer 	interests[8] 	31925790
scalar abilene_nodelay_network.node[8].core_layer 	repo_load[8] 	6749516
scalar abilene_nodelay_network.node[8].core_layer 	data[8] 	13420466
scalar abilene_nodelay_network.node[8].core_layer 	slots_sent[face$o[1]->client[8]] 	1799909000
scalar abilene_nodelay_network.node[8].core_layer 	slots_sent[face$o[2]->node[2]] 	429146200
scalar abilene_nodelay_network.node[8].core_layer 	slots_sent[face$o[3]->node[7]] 	417703900
scalar abilene_nodelay_network.node[8].core_layer 	slots_sent[face$o[4]->node[9]] 	545819900
scalar abilene_nodelay_network.node[8].content_store 	p_hit[8] 	0.36822293199323
scalar abilene_nodelay_network.node[8].content_store 	hits[8] 	11755808
scalar abilene_nodelay_network.node[8].content_store 	misses[8] 	20169982
scalar abilene_nodelay_network.node[8].content_store 	decision_yes[8] 	13420466
scalar abilene_nodelay_network.node[8].content_store 	decision_no[8] 	6749516
scalar abilene_nodelay_network.node[8].content_store 	decision_ratio[8] 	0.66536826854878
scalar abilene_nodelay_network.node[9].core_layer 	interests[9] 	25840412
scalar abilene_nodelay_network.node[9].core_layer 	repo_load[9] 	5958116
scalar abilene_nodelay_network.node[9].core_layer 	data[9] 	8467084
scalar abilene_nodelay_network.node[9].core_layer 	slots_sent[face$o[1]->client[9]] 	1799626600
scalar abilene_nodelay_network.node[9].core_layer 	slots_sent[face$o[2]->node[10]] 	314690100
scalar abilene_nodelay_network.node[9].core_layer 	slots_sent[face$o[3]->node[8]] 	469724500
scalar abilene_nodelay_network.node[9].content_store 	p_hit[9] 	0.44175812676671
scalar abilene_nodelay_network.node[9].content_store 	hits[9] 	11415212
scalar abilene_nodelay_network.node[9].content_store 	misses[9] 	14425200
scalar abilene_nodelay_network.node[9].content_store 	decision_yes[9] 	8467084
scalar abilene_nodelay_network.node[9].content_store 	decision_no[9] 	5958116
scalar abilene_nodelay_network.node[9].content_store 	decision_ratio[9] 	0.58696475612123
scalar abilene_nodelay_network.node[10].core_layer 	interests[10] 	25191647
scalar abilene_nodelay_network.node[10].core_layer 	repo_load[10] 	6822133
scalar abilene_nodelay_network.node[10].core_layer 	data[10] 	7497718
scalar abilene_nodelay_network.node[10].core_layer 	slots_sent[face$o[1]->client[10]] 	1800716800
scalar abilene_nodelay_network.node[10].core_layer 	slots_sent[face$o[2]->node[0]] 	109679800
scalar abilene_nodelay_network.node[10].core_layer 	slots_sent[face$o[3]->node[1]] 	307879600
scalar abilene_nodelay_network.node[10].core_layer 	slots_sent[face$o[4]->node[9]] 	300888500
scalar abilene_nodelay_network.node[10].content_store 	p_hit[10] 	0.43156352579885
scalar abilene_nodelay_network.node[10].content_store 	hits[10] 	10871796
scalar abilene_nodelay_network.node[10].content_store 	misses[10] 	14319851
scalar abilene_nodelay_network.node[10].content_store 	decision_yes[10] 	7497718
scalar abilene_nodelay_network.node[10].content_store 	decision_no[10] 	6822133
scalar abilene_nodelay_network.node[10].content_store 	decision_ratio[10] 	0.52358910717716
scalar abilene_nodelay_network.client[0] 	hdistance[0].real 	1.1750126086532
scalar abilene_nodelay_network.client[0] 	downloads[0].real 	17993595
scalar abilene_nodelay_network.client[0] 	avg_time[0].real 	0
scalar abilene_nodelay_network.client[1] 	hdistance[1].real 	1.1227369876302
scalar abilene_nodelay_network.client[1] 	downloads[1].real 	18002332
scalar abilene_nodelay_network.client[1] 	avg_time[1].real 	0
scalar abilene_nodelay_network.client[2] 	hdistance[2].real 	0.94459511769764
scalar abilene_nodelay_network.client[2] 	downloads[2].real 	17998107
scalar abilene_nodelay_network.client[2] 	avg_time[2].real 	0
scalar abilene_nodelay_network.client[3] 	hdistance[3].real 	0.96536037848998
scalar abilene_nodelay_network.client[3] 	downloads[3].real 	18001005
scalar abilene_nodelay_network.client[3] 	avg_time[3].real 	0
scalar abilene_nodelay_network.client[4] 	hdistance[4].real 	1.0963030700328
scalar abilene_nodelay_network.client[4] 	downloads[4].real 	18001991
scalar abilene_nodelay_network.client[4] 	avg_time[4].real 	0
scalar abilene_nodelay_network.client[5] 	hdistance[5].real 	1.1581344297452
scalar abilene_nodelay_network.client[5] 	downloads[5].real 	17997371
scalar abilene_nodelay_network.client[5] 	avg_time[5].real 	0
scalar abilene_nodelay_network.client[6] 	hdistance[6].real 	1.1122363785417
scalar abilene_nodelay_network.client[6] 	downloads[6].real 	17997302
scalar abilene_nodelay_network.client[6] 	avg_time[6].real 	0
scalar abilene_nodelay_network.client[7] 	hdistance[7].real 	0.97072777527127
scalar abilene_nodelay_network.client[7] 	downloads[7].real 	17999691
scalar abilene_nodelay_network.client[7] 	avg_time[7].real 	0
scalar abilene_nodelay_network.client[8] 	hdistance[8].real 	0.94965339914407
scalar abilene_nodelay_network.client[8] 	downloads[8].real 	17999090
scalar abilene_nodelay_network.client[8] 	avg_time[8].real 	0
scalar abilene_nodelay_network.client[9] 	hdistance[9].real 	1.0316205595092
scalar abilene_nodelay_network.client[9] 	downloads[9].real 	17996266
scalar abilene_nodelay_network.client[9] 	avg_time[9].real 	0
scalar abilene_nodelay_network.client[10] 	hdistance[10].real 	1.1037698432089
scalar abilene_nodelay_network.client[10] 	downloads[10].real 	18007168
scalar abilene_nodelay_network.client[10] 	avg_time[10].real 	0
