version 2
run General-8-20150721-01:49:40-25827
attr C 1e6
attr D lce
attr F spr
attr R lru
attr a 1
attr brates 1
attr configname General
attr ctlg 1e8
attr datetime 20150721-01:49:40
attr experiment General
attr inifile omnetpp.ini
attr iterationvars "$net=abilene_nodelay, $rep=4, $lambda=100, $a=1, $ctlg=1e8, $brates=1, $F=spr, $ttl=1000, $D=lce, $R=lru, $C=1e6, $window=60, $variance=0.05, $mytime=180000"
attr iterationvars2 "$net=abilene_nodelay, $rep=4, $lambda=100, $a=1, $ctlg=1e8, $brates=1, $F=spr, $ttl=1000, $D=lce, $R=lru, $C=1e6, $window=60, $variance=0.05, $mytime=180000, $repetition=0"
attr lambda 100
attr measurement "$net=abilene_nodelay, $rep=4, $lambda=100, $a=1, $ctlg=1e8, $brates=1, $F=spr, $ttl=1000, $D=lce, $R=lru, $C=1e6, $window=60, $variance=0.05, $mytime=180000"
attr mytime 180000
attr net abilene_nodelay
attr network networks.${net=abilene_nodelay}_network
attr processid 25827
attr rep 4
attr repetition 0
attr replication #0
attr resultdir results
attr runnumber 8
attr seedset 4
attr ttl 1000
attr variance 0.05
attr window 60

scalar . 	C 	1e6
scalar . 	a 	1
scalar . 	brates 	1
scalar . 	ctlg 	1e8
scalar . 	lambda 	100
scalar . 	mytime 	180000
scalar . 	rep 	4
scalar . 	ttl 	1000
scalar . 	variance 	0.05
scalar . 	window 	60
scalar abilene_nodelay_network.content_distribution 	repo-0 	2
scalar abilene_nodelay_network.content_distribution 	repo-1 	0
scalar abilene_nodelay_network.content_distribution 	repo-2 	10
scalar abilene_nodelay_network.content_distribution 	repo-3 	6
scalar abilene_nodelay_network.content_distribution 	repo-4 	4
scalar abilene_nodelay_network.content_distribution 	repo-5 	9
scalar abilene_nodelay_network.content_distribution 	repo-6 	3
scalar abilene_nodelay_network.content_distribution 	repo-7 	5
scalar abilene_nodelay_network.content_distribution 	repo-8 	1
scalar abilene_nodelay_network.content_distribution 	repo-9 	8
scalar abilene_nodelay_network.content_distribution 	repo-10 	7
scalar abilene_nodelay_network.content_distribution 	client-0 	3
scalar abilene_nodelay_network.content_distribution 	client-1 	5
scalar abilene_nodelay_network.content_distribution 	client-2 	8
scalar abilene_nodelay_network.content_distribution 	client-3 	10
scalar abilene_nodelay_network.content_distribution 	client-4 	1
scalar abilene_nodelay_network.content_distribution 	client-5 	7
scalar abilene_nodelay_network.content_distribution 	client-6 	6
scalar abilene_nodelay_network.content_distribution 	client-7 	0
scalar abilene_nodelay_network.content_distribution 	client-8 	4
scalar abilene_nodelay_network.content_distribution 	client-9 	9
scalar abilene_nodelay_network.content_distribution 	client-10 	2
scalar abilene_nodelay_network.content_distribution 	repo-0_card 	9084698
scalar abilene_nodelay_network.content_distribution 	repo-0_price 	0
scalar abilene_nodelay_network.content_distribution 	repo-1_card 	9088682
scalar abilene_nodelay_network.content_distribution 	repo-1_price 	0
scalar abilene_nodelay_network.content_distribution 	repo-2_card 	9091335
scalar abilene_nodelay_network.content_distribution 	repo-2_price 	0
scalar abilene_nodelay_network.content_distribution 	repo-3_card 	9090115
scalar abilene_nodelay_network.content_distribution 	repo-3_price 	0
scalar abilene_nodelay_network.content_distribution 	repo-4_card 	9089712
scalar abilene_nodelay_network.content_distribution 	repo-4_price 	0
scalar abilene_nodelay_network.content_distribution 	repo-5_card 	9088758
scalar abilene_nodelay_network.content_distribution 	repo-5_price 	0
scalar abilene_nodelay_network.content_distribution 	repo-6_card 	9097388
scalar abilene_nodelay_network.content_distribution 	repo-6_price 	0
scalar abilene_nodelay_network.content_distribution 	repo-7_card 	9089446
scalar abilene_nodelay_network.content_distribution 	repo-7_price 	0
scalar abilene_nodelay_network.content_distribution 	repo-8_card 	9088642
scalar abilene_nodelay_network.content_distribution 	repo-8_price 	0
scalar abilene_nodelay_network.content_distribution 	repo-9_card 	9096856
scalar abilene_nodelay_network.content_distribution 	repo-9_price 	0
scalar abilene_nodelay_network.content_distribution 	repo-10_card 	9094368
scalar abilene_nodelay_network.content_distribution 	repo-10_price 	0
scalar abilene_nodelay_network.statistics 	stabilization_time 	30552.9
scalar abilene_nodelay_network.statistics 	p_hit 	0.37681855525444
scalar abilene_nodelay_network.statistics 	interests 	30540908.454545
scalar abilene_nodelay_network.statistics 	data 	12542265.181818
scalar abilene_nodelay_network.statistics 	hdistance 	1.057447518215
scalar abilene_nodelay_network.statistics 	avg_time 	0
scalar abilene_nodelay_network.statistics 	downloads 	197985076
scalar abilene_nodelay_network.statistics 	total_cost 	0
scalar abilene_nodelay_network.statistics 	total_replicas 	100000000
scalar abilene_nodelay_network.statistics 	"representations_downloaded 1:" 	0
scalar abilene_nodelay_network.statistics 	"slots_per_representation 100:" 	0
scalar abilene_nodelay_network.statistics 	inner_hit 	0.63940269417075
scalar abilene_nodelay_network.statistics 	execution_time 	12470
scalar abilene_nodelay_network.node[0].core_layer 	interests[0] 	22617128
scalar abilene_nodelay_network.node[0].core_layer 	repo_load[0] 	7227637
scalar abilene_nodelay_network.node[0].core_layer 	data[0] 	5489801
scalar abilene_nodelay_network.node[0].core_layer 	slots_sent[face$o[1]->client[0]] 	1799907800
scalar abilene_nodelay_network.node[0].core_layer 	slots_sent[face$o[2]->node[1]] 	359404300
scalar abilene_nodelay_network.node[0].core_layer 	slots_sent[face$o[3]->node[10]] 	102400700
scalar abilene_nodelay_network.node[0].content_store 	p_hit[0] 	0.43770765235975
scalar abilene_nodelay_network.node[0].content_store 	hits[0] 	9899690
scalar abilene_nodelay_network.node[0].content_store 	misses[0] 	12717438
scalar abilene_nodelay_network.node[0].content_store 	decision_yes[0] 	5489801
scalar abilene_nodelay_network.node[0].content_store 	decision_no[0] 	7227637
scalar abilene_nodelay_network.node[0].content_store 	decision_ratio[0] 	0.43167507480673
scalar abilene_nodelay_network.node[1].core_layer 	interests[1] 	34635926
scalar abilene_nodelay_network.node[1].core_layer 	repo_load[1] 	6840857
scalar abilene_nodelay_network.node[1].core_layer 	data[1] 	16309238
scalar abilene_nodelay_network.node[1].core_layer 	slots_sent[face$o[1]->client[1]] 	1799763300
scalar abilene_nodelay_network.node[1].core_layer 	slots_sent[face$o[2]->node[0]] 	439163300
scalar abilene_nodelay_network.node[1].core_layer 	slots_sent[face$o[3]->node[10]] 	331876800
scalar abilene_nodelay_network.node[1].core_layer 	slots_sent[face$o[4]->node[2]] 	892789200
scalar abilene_nodelay_network.node[1].content_store 	p_hit[1] 	0.33161610866128
scalar abilene_nodelay_network.node[1].content_store 	hits[1] 	11485831
scalar abilene_nodelay_network.node[1].content_store 	misses[1] 	23150095
scalar abilene_nodelay_network.node[1].content_store 	decision_yes[1] 	16309238
scalar abilene_nodelay_network.node[1].content_store 	decision_no[1] 	6840857
scalar abilene_nodelay_network.node[1].content_store 	decision_ratio[1] 	0.70449983034627
scalar abilene_nodelay_network.node[2].core_layer 	interests[2] 	43732574
scalar abilene_nodelay_network.node[2].core_layer 	repo_load[2] 	6620778
scalar abilene_nodelay_network.node[2].core_layer 	data[2] 	24561761
scalar abilene_nodelay_network.node[2].core_layer 	slots_sent[face$o[1]->client[2]] 	1800150600
scalar abilene_nodelay_network.node[2].core_layer 	slots_sent[face$o[2]->node[1]] 	963270200
scalar abilene_nodelay_network.node[2].core_layer 	slots_sent[face$o[3]->node[3]] 	1152795700
scalar abilene_nodelay_network.node[2].core_layer 	slots_sent[face$o[4]->node[8]] 	457040900
scalar abilene_nodelay_network.node[2].content_store 	p_hit[2] 	0.28697224636263
scalar abilene_nodelay_network.node[2].content_store 	hits[2] 	12550035
scalar abilene_nodelay_network.node[2].content_store 	misses[2] 	31182539
scalar abilene_nodelay_network.node[2].content_store 	decision_yes[2] 	24561761
scalar abilene_nodelay_network.node[2].content_store 	decision_no[2] 	6620778
scalar abilene_nodelay_network.node[2].content_store 	decision_ratio[2] 	0.78767675076106
scalar abilene_nodelay_network.node[3].core_layer 	interests[3] 	41545518
scalar abilene_nodelay_network.node[3].core_layer 	repo_load[3] 	6574249
scalar abilene_nodelay_network.node[3].core_layer 	data[3] 	22536326
scalar abilene_nodelay_network.node[3].core_layer 	slots_sent[face$o[1]->client[3]] 	1799871200
scalar abilene_nodelay_network.node[3].core_layer 	slots_sent[face$o[2]->node[2]] 	1134191000
scalar abilene_nodelay_network.node[3].core_layer 	slots_sent[face$o[3]->node[4]] 	711517800
scalar abilene_nodelay_network.node[3].core_layer 	slots_sent[face$o[4]->node[7]] 	508971800
scalar abilene_nodelay_network.node[3].content_store 	p_hit[3] 	0.29930889295928
scalar abilene_nodelay_network.node[3].content_store 	hits[3] 	12434943
scalar abilene_nodelay_network.node[3].content_store 	misses[3] 	29110575
scalar abilene_nodelay_network.node[3].content_store 	decision_yes[3] 	22536326
scalar abilene_nodelay_network.node[3].content_store 	decision_no[3] 	6574249
scalar abilene_nodelay_network.node[3].content_store 	decision_ratio[3] 	0.7741628600603
scalar abilene_nodelay_network.node[4].core_layer 	interests[4] 	28122794
scalar abilene_nodelay_network.node[4].core_layer 	repo_load[4] 	6341574
scalar abilene_nodelay_network.node[4].core_layer 	data[4] 	10356850
scalar abilene_nodelay_network.node[4].core_layer 	slots_sent[face$o[1]->client[4]] 	1799491700
scalar abilene_nodelay_network.node[4].core_layer 	slots_sent[face$o[2]->node[3]] 	631165300
scalar abilene_nodelay_network.node[4].core_layer 	slots_sent[face$o[3]->node[5]] 	381622400
scalar abilene_nodelay_network.node[4].content_store 	p_hit[4] 	0.40623168523014
scalar abilene_nodelay_network.node[4].content_store 	hits[4] 	11424370
scalar abilene_nodelay_network.node[4].content_store 	misses[4] 	16698424
scalar abilene_nodelay_network.node[4].content_store 	decision_yes[4] 	10356850
scalar abilene_nodelay_network.node[4].content_store 	decision_no[4] 	6341574
scalar abilene_nodelay_network.node[4].content_store 	decision_ratio[4] 	0.62022919049127
scalar abilene_nodelay_network.node[5].core_layer 	interests[5] 	23663694
scalar abilene_nodelay_network.node[5].core_layer 	repo_load[5] 	5889898
scalar abilene_nodelay_network.node[5].core_layer 	data[5] 	6507450
scalar abilene_nodelay_network.node[5].core_layer 	slots_sent[face$o[1]->client[5]] 	1799805800
scalar abilene_nodelay_network.node[5].core_layer 	slots_sent[face$o[2]->node[4]] 	324167200
scalar abilene_nodelay_network.node[5].core_layer 	slots_sent[face$o[3]->node[6]] 	242396400
scalar abilene_nodelay_network.node[5].content_store 	p_hit[5] 	0.47610258989995
scalar abilene_nodelay_network.node[5].content_store 	hits[5] 	11266346
scalar abilene_nodelay_network.node[5].content_store 	misses[5] 	12397348
scalar abilene_nodelay_network.node[5].content_store 	decision_yes[5] 	6507450
scalar abilene_nodelay_network.node[5].content_store 	decision_no[5] 	5889898
scalar abilene_nodelay_network.node[5].content_store 	decision_ratio[5] 	0.52490661712489
scalar abilene_nodelay_network.node[6].core_layer 	interests[6] 	25788694
scalar abilene_nodelay_network.node[6].core_layer 	repo_load[6] 	5920673
scalar abilene_nodelay_network.node[6].core_layer 	data[6] 	8449613
scalar abilene_nodelay_network.node[6].core_layer 	slots_sent[face$o[1]->client[6]] 	1799914000
scalar abilene_nodelay_network.node[6].core_layer 	slots_sent[face$o[2]->node[5]] 	269122600
scalar abilene_nodelay_network.node[6].core_layer 	slots_sent[face$o[3]->node[7]] 	509832800
scalar abilene_nodelay_network.node[6].content_store 	p_hit[6] 	0.44276798196915
scalar abilene_nodelay_network.node[6].content_store 	hits[6] 	11418408
scalar abilene_nodelay_network.node[6].content_store 	misses[6] 	14370286
scalar abilene_nodelay_network.node[6].content_store 	decision_yes[6] 	8449613
scalar abilene_nodelay_network.node[6].content_store 	decision_no[6] 	5920673
scalar abilene_nodelay_network.node[6].content_store 	decision_ratio[6] 	0.58799198568491
scalar abilene_nodelay_network.node[7].core_layer 	interests[7] 	32878269
scalar abilene_nodelay_network.node[7].core_layer 	repo_load[7] 	6632677
scalar abilene_nodelay_network.node[7].core_layer 	data[7] 	14366190
scalar abilene_nodelay_network.node[7].core_layer 	slots_sent[face$o[1]->client[7]] 	1799931200
scalar abilene_nodelay_network.node[7].core_layer 	slots_sent[face$o[2]->node[3]] 	469671600
scalar abilene_nodelay_network.node[7].core_layer 	slots_sent[face$o[3]->node[6]] 	602564900
scalar abilene_nodelay_network.node[7].core_layer 	slots_sent[face$o[4]->node[8]] 	415659200
scalar abilene_nodelay_network.node[7].content_store 	p_hit[7] 	0.36131470303379
scalar abilene_nodelay_network.node[7].content_store 	hits[7] 	11879402
scalar abilene_nodelay_network.node[7].content_store 	misses[7] 	20998867
scalar abilene_nodelay_network.node[7].content_store 	decision_yes[7] 	14366190
scalar abilene_nodelay_network.node[7].content_store 	decision_no[7] 	6632677
scalar abilene_nodelay_network.node[7].content_store 	decision_ratio[7] 	0.68414119676076
scalar abilene_nodelay_network.node[8].core_layer 	interests[8] 	31934577
scalar abilene_nodelay_network.node[8].core_layer 	repo_load[8] 	6810165
scalar abilene_nodelay_network.node[8].core_layer 	data[8] 	13424871
scalar abilene_nodelay_network.node[8].core_layer 	slots_sent[face$o[1]->client[8]] 	1800268200
scalar abilene_nodelay_network.node[8].core_layer 	slots_sent[face$o[2]->node[2]] 	429195900
scalar abilene_nodelay_network.node[8].core_layer 	slots_sent[face$o[3]->node[7]] 	417814400
scalar abilene_nodelay_network.node[8].core_layer 	slots_sent[face$o[4]->node[9]] 	546179200
scalar abilene_nodelay_network.node[8].content_store 	p_hit[8] 	0.36635966714073
scalar abilene_nodelay_network.node[8].content_store 	hits[8] 	11699541
scalar abilene_nodelay_network.node[8].content_store 	misses[8] 	20235036
scalar abilene_nodelay_network.node[8].content_store 	decision_yes[8] 	13424871
scalar abilene_nodelay_network.node[8].content_store 	decision_no[8] 	6810165
scalar abilene_nodelay_network.node[8].content_store 	decision_ratio[8] 	0.66344685524651
scalar abilene_nodelay_network.node[9].core_layer 	interests[9] 	25848328
scalar abilene_nodelay_network.node[9].core_layer 	repo_load[9] 	6379350
scalar abilene_nodelay_network.node[9].core_layer 	data[9] 	8471445
scalar abilene_nodelay_network.node[9].core_layer 	slots_sent[face$o[1]->client[9]] 	1800186100
scalar abilene_nodelay_network.node[9].core_layer 	slots_sent[face$o[2]->node[10]] 	314859700
scalar abilene_nodelay_network.node[9].core_layer 	slots_sent[face$o[3]->node[8]] 	469787000
scalar abilene_nodelay_network.node[9].content_store 	p_hit[9] 	0.42546399906408
scalar abilene_nodelay_network.node[9].content_store 	hits[9] 	10997533
scalar abilene_nodelay_network.node[9].content_store 	misses[9] 	14850795
scalar abilene_nodelay_network.node[9].content_store 	decision_yes[9] 	8471445
scalar abilene_nodelay_network.node[9].content_store 	decision_no[9] 	6379350
scalar abilene_nodelay_network.node[9].content_store 	decision_ratio[9] 	0.57043713821381
scalar abilene_nodelay_network.node[10].core_layer 	interests[10] 	25182491
scalar abilene_nodelay_network.node[10].core_layer 	repo_load[10] 	6155027
scalar abilene_nodelay_network.node[10].core_layer 	data[10] 	7491372
scalar abilene_nodelay_network.node[10].core_layer 	slots_sent[face$o[1]->client[10]] 	1799217700
scalar abilene_nodelay_network.node[10].core_layer 	slots_sent[face$o[2]->node[0]] 	109816800
scalar abilene_nodelay_network.node[10].core_layer 	slots_sent[face$o[3]->node[1]] 	308249300
scalar abilene_nodelay_network.node[10].core_layer 	slots_sent[face$o[4]->node[9]] 	300965300
scalar abilene_nodelay_network.node[10].content_store 	p_hit[10] 	0.45809971698193
scalar abilene_nodelay_network.node[10].content_store 	hits[10] 	11536092
scalar abilene_nodelay_network.node[10].content_store 	misses[10] 	13646399
scalar abilene_nodelay_network.node[10].content_store 	decision_yes[10] 	7491372
scalar abilene_nodelay_network.node[10].content_store 	decision_no[10] 	6155027
scalar abilene_nodelay_network.node[10].content_store 	decision_ratio[10] 	0.54896328328081
scalar abilene_nodelay_network.client[0] 	hdistance[0].real 	1.2225118419957
scalar abilene_nodelay_network.client[0] 	downloads[0].real 	17999078
scalar abilene_nodelay_network.client[0] 	avg_time[0].real 	0
scalar abilene_nodelay_network.client[1] 	hdistance[1].real 	1.0690615815981
scalar abilene_nodelay_network.client[1] 	downloads[1].real 	17997633
scalar abilene_nodelay_network.client[1] 	avg_time[1].real 	0
scalar abilene_nodelay_network.client[2] 	hdistance[2].real 	0.9464731450802
scalar abilene_nodelay_network.client[2] 	downloads[2].real 	18001506
scalar abilene_nodelay_network.client[2] 	avg_time[2].real 	0
scalar abilene_nodelay_network.client[3] 	hdistance[3].real 	0.97143040013085
scalar abilene_nodelay_network.client[3] 	downloads[3].real 	17998712
scalar abilene_nodelay_network.client[3] 	avg_time[3].real 	0
scalar abilene_nodelay_network.client[4] 	hdistance[4].real 	1.1065476434261
scalar abilene_nodelay_network.client[4] 	downloads[4].real 	17994917
scalar abilene_nodelay_network.client[4] 	avg_time[4].real 	0
scalar abilene_nodelay_network.client[5] 	hdistance[5].real 	1.1587455157661
scalar abilene_nodelay_network.client[5] 	downloads[5].real 	17998058
scalar abilene_nodelay_network.client[5] 	avg_time[5].real 	0
scalar abilene_nodelay_network.client[6] 	hdistance[6].real 	1.1062952452173
scalar abilene_nodelay_network.client[6] 	downloads[6].real 	17999140
scalar abilene_nodelay_network.client[6] 	avg_time[6].real 	0
scalar abilene_nodelay_network.client[7] 	hdistance[7].real 	0.97616764462997
scalar abilene_nodelay_network.client[7] 	downloads[7].real 	17999312
scalar abilene_nodelay_network.client[7] 	avg_time[7].real 	0
scalar abilene_nodelay_network.client[8] 	hdistance[8].real 	0.95296878542876
scalar abilene_nodelay_network.client[8] 	downloads[8].real 	18002682
scalar abilene_nodelay_network.client[8] 	avg_time[8].real 	0
scalar abilene_nodelay_network.client[9] 	hdistance[9].real 	1.055046975421
scalar abilene_nodelay_network.client[9] 	downloads[9].real 	18001861
scalar abilene_nodelay_network.client[9] 	avg_time[9].real 	0
scalar abilene_nodelay_network.client[10] 	hdistance[10].real 	1.0666739216713
scalar abilene_nodelay_network.client[10] 	downloads[10].real 	17992177
scalar abilene_nodelay_network.client[10] 	avg_time[10].real 	0
