version 2
run General-9-20140930-18:34:07-19934
attr D costaware0.01
attr F nrr
attr R lru
attr a 1
attr configname General
attr csize 1e3
attr ctlg 1e5
attr datetime 20140930-18:34:07
attr experiment General
attr inifile omnetpp.ini
attr iterationvars "$net=tiger_cost, $rep=4, $priceratiovalue=10, $weights=0.333_0.333_0.334, $lambda=100, $a=1, $ctlg=1e5, $F=nrr, $ttl=10, $D=costaware0.01, $xi=1, $R=lru, $csize=1e3, $pricebits=0, $window=60, $variance=0.05, $mytime=1800"
attr iterationvars2 "$net=tiger_cost, $rep=4, $priceratiovalue=10, $weights=0.333_0.333_0.334, $lambda=100, $a=1, $ctlg=1e5, $F=nrr, $ttl=10, $D=costaware0.01, $xi=1, $R=lru, $csize=1e3, $pricebits=0, $window=60, $variance=0.05, $mytime=1800, $repetition=0"
attr lambda 100
attr measurement "$net=tiger_cost, $rep=4, $priceratiovalue=10, $weights=0.333_0.333_0.334, $lambda=100, $a=1, $ctlg=1e5, $F=nrr, $ttl=10, $D=costaware0.01, $xi=1, $R=lru, $csize=1e3, $pricebits=0, $window=60, $variance=0.05, $mytime=1800"
attr mytime 1800
attr net tiger_cost
attr network networks.${net=tiger_cost,dtelecom_cost}_network
attr pricebits 0
attr priceratiovalue 10
attr processid 19934
attr rep 4
attr repetition 0
attr replication #0
attr resultdir results
attr runnumber 9
attr seedset 4
attr ttl 10
attr variance 0.05
attr weights 0.333_0.333_0.334
attr window 60
attr xi 1

scalar . 	a 	1
scalar . 	csize 	1e3
scalar . 	ctlg 	1e5
scalar . 	lambda 	100
scalar . 	mytime 	1800
scalar . 	pricebits 	0
scalar . 	priceratiovalue 	10
scalar . 	rep 	4
scalar . 	ttl 	10
scalar . 	variance 	0.05
scalar . 	window 	60
scalar . 	xi 	1
scalar tiger_cost_network.content_distribution 	repo-0 	18
scalar tiger_cost_network.content_distribution 	repo-1 	16
scalar tiger_cost_network.content_distribution 	repo-2 	10
scalar tiger_cost_network.content_distribution 	client-0 	6
scalar tiger_cost_network.content_distribution 	client-1 	2
scalar tiger_cost_network.content_distribution 	client-2 	20
scalar tiger_cost_network.content_distribution 	repo-0_card 	33274
scalar tiger_cost_network.content_distribution 	repo-0_price 	0
scalar tiger_cost_network.content_distribution 	repo-1_card 	33153
scalar tiger_cost_network.content_distribution 	repo-1_price 	1
scalar tiger_cost_network.content_distribution 	repo-2_card 	33573
scalar tiger_cost_network.content_distribution 	repo-2_price 	10
scalar tiger_cost_network.statistics 	repo_popularity[0] 	0.33945880017902
scalar tiger_cost_network.statistics 	repo_popularity[1] 	0.30988277584688
scalar tiger_cost_network.statistics 	repo_popularity[2] 	0.35065842397411
scalar tiger_cost_network.statistics 	stabilization_time 	36060
scalar tiger_cost_network.statistics 	p_hit 	0.10517810529787
scalar tiger_cost_network.statistics 	interests 	81598.818181818
scalar tiger_cost_network.statistics 	data 	57052.954545455
scalar tiger_cost_network.statistics 	hdistance 	2.9768982449866
scalar tiger_cost_network.statistics 	avg_time 	0.00100783944
scalar tiger_cost_network.statistics 	downloads 	539519
scalar tiger_cost_network.statistics 	total_cost 	935758
scalar tiger_cost_network.statistics 	total_replicas 	100000
scalar tiger_cost_network.statistics 	inner_hit 	0.35023604358697
scalar tiger_cost_network.node[0].core_layer 	interests[0] 	61240
scalar tiger_cost_network.node[0].core_layer 	data[0] 	61240
scalar tiger_cost_network.node[0].core_layer 	repo_int[0] 	350560
scalar tiger_cost_network.node[0].content_store 	p_hit[0] 	0
scalar tiger_cost_network.node[0].content_store 	hits[0] 	0
scalar tiger_cost_network.node[0].content_store 	misses[0] 	61240
scalar tiger_cost_network.node[0].content_store 	decision_yes[0] 	0
scalar tiger_cost_network.node[0].content_store 	decision_no[0] 	61240
scalar tiger_cost_network.node[0].content_store 	decision_ratio[0] 	0
scalar tiger_cost_network.node[0].content_store 	correction_factor[0] 	0.0027225701061802
scalar tiger_cost_network.node[0].content_store 	kappa[0] 	1
scalar tiger_cost_network.node[1].core_layer 	interests[1] 	163297
scalar tiger_cost_network.node[1].core_layer 	data[1] 	118917
scalar tiger_cost_network.node[1].content_store 	p_hit[1] 	0.27165226550396
scalar tiger_cost_network.node[1].content_store 	hits[1] 	44360
scalar tiger_cost_network.node[1].content_store 	misses[1] 	118937
scalar tiger_cost_network.node[1].content_store 	decision_yes[1] 	2299
scalar tiger_cost_network.node[1].content_store 	decision_no[1] 	116618
scalar tiger_cost_network.node[1].content_store 	decision_ratio[1] 	0.019332811961284
scalar tiger_cost_network.node[1].content_store 	correction_factor[1] 	0.0027225701061802
scalar tiger_cost_network.node[1].content_store 	kappa[1] 	1
scalar tiger_cost_network.node[2].core_layer 	interests[2] 	184549
scalar tiger_cost_network.node[2].core_layer 	data[2] 	174029
scalar tiger_cost_network.node[2].content_store 	p_hit[2] 	0.055470362884654
scalar tiger_cost_network.node[2].content_store 	hits[2] 	10237
scalar tiger_cost_network.node[2].content_store 	misses[2] 	174312
scalar tiger_cost_network.node[2].content_store 	decision_yes[2] 	882
scalar tiger_cost_network.node[2].content_store 	decision_no[2] 	173147
scalar tiger_cost_network.node[2].content_store 	decision_ratio[2] 	0.0050681208304363
scalar tiger_cost_network.node[2].content_store 	correction_factor[2] 	0.0027225701061802
scalar tiger_cost_network.node[2].content_store 	kappa[2] 	1
scalar tiger_cost_network.node[3].core_layer 	interests[3] 	55213
scalar tiger_cost_network.node[3].core_layer 	data[3] 	50582
scalar tiger_cost_network.node[3].content_store 	p_hit[3] 	0.083875174324887
scalar tiger_cost_network.node[3].content_store 	hits[3] 	4631
scalar tiger_cost_network.node[3].content_store 	misses[3] 	50582
scalar tiger_cost_network.node[3].content_store 	decision_yes[3] 	72
scalar tiger_cost_network.node[3].content_store 	decision_no[3] 	50510
scalar tiger_cost_network.node[3].content_store 	decision_ratio[3] 	0.0014234312601321
scalar tiger_cost_network.node[3].content_store 	correction_factor[3] 	0.0027225701061802
scalar tiger_cost_network.node[3].content_store 	kappa[3] 	1
scalar tiger_cost_network.node[4].core_layer 	interests[4] 	62620
scalar tiger_cost_network.node[4].core_layer 	data[4] 	47281
scalar tiger_cost_network.node[4].content_store 	p_hit[4] 	0.24495368891728
scalar tiger_cost_network.node[4].content_store 	hits[4] 	15339
scalar tiger_cost_network.node[4].content_store 	misses[4] 	47281
scalar tiger_cost_network.node[4].content_store 	decision_yes[4] 	84
scalar tiger_cost_network.node[4].content_store 	decision_no[4] 	47197
scalar tiger_cost_network.node[4].content_store 	decision_ratio[4] 	0.0017766121697934
scalar tiger_cost_network.node[4].content_store 	correction_factor[4] 	0.0027225701061802
scalar tiger_cost_network.node[4].content_store 	kappa[4] 	1
scalar tiger_cost_network.node[5].core_layer 	interests[5] 	15183
scalar tiger_cost_network.node[5].core_layer 	data[5] 	15183
scalar tiger_cost_network.node[5].content_store 	p_hit[5] 	0
scalar tiger_cost_network.node[5].content_store 	hits[5] 	0
scalar tiger_cost_network.node[5].content_store 	misses[5] 	15183
scalar tiger_cost_network.node[5].content_store 	decision_yes[5] 	0
scalar tiger_cost_network.node[5].content_store 	decision_no[5] 	15183
scalar tiger_cost_network.node[5].content_store 	decision_ratio[5] 	0
scalar tiger_cost_network.node[5].content_store 	correction_factor[5] 	0.0027225701061802
scalar tiger_cost_network.node[5].content_store 	kappa[5] 	1
scalar tiger_cost_network.node[6].core_layer 	interests[6] 	239201
scalar tiger_cost_network.node[6].core_layer 	data[6] 	205276
scalar tiger_cost_network.node[6].content_store 	p_hit[6] 	0.14124104832338
scalar tiger_cost_network.node[6].content_store 	hits[6] 	33785
scalar tiger_cost_network.node[6].content_store 	misses[6] 	205416
scalar tiger_cost_network.node[6].content_store 	decision_yes[6] 	871
scalar tiger_cost_network.node[6].content_store 	decision_no[6] 	204405
scalar tiger_cost_network.node[6].content_store 	decision_ratio[6] 	0.0042430678696
scalar tiger_cost_network.node[6].content_store 	correction_factor[6] 	0.0027225701061802
scalar tiger_cost_network.node[6].content_store 	kappa[6] 	1
scalar tiger_cost_network.node[7].core_layer 	interests[7] 	172707
scalar tiger_cost_network.node[7].core_layer 	data[7] 	164936
scalar tiger_cost_network.node[7].content_store 	p_hit[7] 	0.044294672479981
scalar tiger_cost_network.node[7].content_store 	hits[7] 	7650
scalar tiger_cost_network.node[7].content_store 	misses[7] 	165057
scalar tiger_cost_network.node[7].content_store 	decision_yes[7] 	1595
scalar tiger_cost_network.node[7].content_store 	decision_no[7] 	163341
scalar tiger_cost_network.node[7].content_store 	decision_ratio[7] 	0.00967041761653
scalar tiger_cost_network.node[7].content_store 	correction_factor[7] 	0.0027225701061802
scalar tiger_cost_network.node[7].content_store 	kappa[7] 	1
scalar tiger_cost_network.node[8].core_layer 	interests[8] 	116844
scalar tiger_cost_network.node[8].core_layer 	data[8] 	106744
scalar tiger_cost_network.node[8].content_store 	p_hit[8] 	0.086440039711068
scalar tiger_cost_network.node[8].content_store 	hits[8] 	10100
scalar tiger_cost_network.node[8].content_store 	misses[8] 	106744
scalar tiger_cost_network.node[8].content_store 	decision_yes[8] 	1465
scalar tiger_cost_network.node[8].content_store 	decision_no[8] 	105279
scalar tiger_cost_network.node[8].content_store 	decision_ratio[8] 	0.013724424792026
scalar tiger_cost_network.node[8].content_store 	correction_factor[8] 	0.0027225701061802
scalar tiger_cost_network.node[8].content_store 	kappa[8] 	1
scalar tiger_cost_network.node[9].core_layer 	interests[9] 	0
scalar tiger_cost_network.node[9].core_layer 	data[9] 	0
scalar tiger_cost_network.node[9].content_store 	p_hit[9] 	-nan
scalar tiger_cost_network.node[9].content_store 	hits[9] 	0
scalar tiger_cost_network.node[9].content_store 	misses[9] 	0
scalar tiger_cost_network.node[9].content_store 	decision_yes[9] 	0
scalar tiger_cost_network.node[9].content_store 	decision_no[9] 	0
scalar tiger_cost_network.node[9].content_store 	decision_ratio[9] 	0
scalar tiger_cost_network.node[9].content_store 	correction_factor[9] 	0.0027225701061802
scalar tiger_cost_network.node[9].content_store 	kappa[9] 	1
scalar tiger_cost_network.node[10].core_layer 	interests[10] 	108133
scalar tiger_cost_network.node[10].core_layer 	repo_load[10] 	85390
scalar tiger_cost_network.node[10].core_layer 	data[10] 	0
scalar tiger_cost_network.node[10].content_store 	p_hit[10] 	0.21032432282467
scalar tiger_cost_network.node[10].content_store 	hits[10] 	22743
scalar tiger_cost_network.node[10].content_store 	misses[10] 	85390
scalar tiger_cost_network.node[10].content_store 	decision_yes[10] 	2225
scalar tiger_cost_network.node[10].content_store 	decision_no[10] 	83165
scalar tiger_cost_network.node[10].content_store 	decision_ratio[10] 	0.026056915329664
scalar tiger_cost_network.node[10].content_store 	correction_factor[10] 	0.0027225701061802
scalar tiger_cost_network.node[10].content_store 	kappa[10] 	1
scalar tiger_cost_network.node[11].core_layer 	interests[11] 	0
scalar tiger_cost_network.node[11].core_layer 	data[11] 	0
scalar tiger_cost_network.node[11].content_store 	p_hit[11] 	-nan
scalar tiger_cost_network.node[11].content_store 	hits[11] 	0
scalar tiger_cost_network.node[11].content_store 	misses[11] 	0
scalar tiger_cost_network.node[11].content_store 	decision_yes[11] 	0
scalar tiger_cost_network.node[11].content_store 	decision_no[11] 	0
scalar tiger_cost_network.node[11].content_store 	decision_ratio[11] 	0
scalar tiger_cost_network.node[11].content_store 	correction_factor[11] 	0.0027225701061802
scalar tiger_cost_network.node[11].content_store 	kappa[11] 	1
scalar tiger_cost_network.node[12].core_layer 	interests[12] 	61240
scalar tiger_cost_network.node[12].core_layer 	data[12] 	61240
scalar tiger_cost_network.node[12].content_store 	p_hit[12] 	0
scalar tiger_cost_network.node[12].content_store 	hits[12] 	0
scalar tiger_cost_network.node[12].content_store 	misses[12] 	61240
scalar tiger_cost_network.node[12].content_store 	decision_yes[12] 	0
scalar tiger_cost_network.node[12].content_store 	decision_no[12] 	61240
scalar tiger_cost_network.node[12].content_store 	decision_ratio[12] 	0
scalar tiger_cost_network.node[12].content_store 	correction_factor[12] 	0.0027225701061802
scalar tiger_cost_network.node[12].content_store 	kappa[12] 	1
scalar tiger_cost_network.node[13].core_layer 	interests[13] 	0
scalar tiger_cost_network.node[13].core_layer 	data[13] 	0
scalar tiger_cost_network.node[13].content_store 	p_hit[13] 	-nan
scalar tiger_cost_network.node[13].content_store 	hits[13] 	0
scalar tiger_cost_network.node[13].content_store 	misses[13] 	0
scalar tiger_cost_network.node[13].content_store 	decision_yes[13] 	0
scalar tiger_cost_network.node[13].content_store 	decision_no[13] 	0
scalar tiger_cost_network.node[13].content_store 	decision_ratio[13] 	0
scalar tiger_cost_network.node[13].content_store 	correction_factor[13] 	0.0027225701061802
scalar tiger_cost_network.node[13].content_store 	kappa[13] 	1
scalar tiger_cost_network.node[14].core_layer 	interests[14] 	0
scalar tiger_cost_network.node[14].core_layer 	data[14] 	0
scalar tiger_cost_network.node[14].content_store 	p_hit[14] 	-nan
scalar tiger_cost_network.node[14].content_store 	hits[14] 	0
scalar tiger_cost_network.node[14].content_store 	misses[14] 	0
scalar tiger_cost_network.node[14].content_store 	decision_yes[14] 	0
scalar tiger_cost_network.node[14].content_store 	decision_no[14] 	0
scalar tiger_cost_network.node[14].content_store 	decision_ratio[14] 	0
scalar tiger_cost_network.node[14].content_store 	correction_factor[14] 	0.0027225701061802
scalar tiger_cost_network.node[14].content_store 	kappa[14] 	1
scalar tiger_cost_network.node[15].core_layer 	interests[15] 	0
scalar tiger_cost_network.node[15].core_layer 	data[15] 	0
scalar tiger_cost_network.node[15].content_store 	p_hit[15] 	-nan
scalar tiger_cost_network.node[15].content_store 	hits[15] 	0
scalar tiger_cost_network.node[15].content_store 	misses[15] 	0
scalar tiger_cost_network.node[15].content_store 	decision_yes[15] 	0
scalar tiger_cost_network.node[15].content_store 	decision_no[15] 	0
scalar tiger_cost_network.node[15].content_store 	decision_ratio[15] 	0
scalar tiger_cost_network.node[15].content_store 	correction_factor[15] 	0.0027225701061802
scalar tiger_cost_network.node[15].content_store 	kappa[15] 	1
scalar tiger_cost_network.node[16].core_layer 	interests[16] 	111843
scalar tiger_cost_network.node[16].core_layer 	repo_load[16] 	81858
scalar tiger_cost_network.node[16].core_layer 	data[16] 	0
scalar tiger_cost_network.node[16].content_store 	p_hit[16] 	0.26809903167833
scalar tiger_cost_network.node[16].content_store 	hits[16] 	29985
scalar tiger_cost_network.node[16].content_store 	misses[16] 	81858
scalar tiger_cost_network.node[16].content_store 	decision_yes[16] 	229
scalar tiger_cost_network.node[16].content_store 	decision_no[16] 	81629
scalar tiger_cost_network.node[16].content_store 	decision_ratio[16] 	0.0027975274255418
scalar tiger_cost_network.node[16].content_store 	correction_factor[16] 	0.0027225701061802
scalar tiger_cost_network.node[16].content_store 	kappa[16] 	1
scalar tiger_cost_network.node[17].core_layer 	interests[17] 	67702
scalar tiger_cost_network.node[17].core_layer 	data[17] 	67702
scalar tiger_cost_network.node[17].content_store 	p_hit[17] 	0
scalar tiger_cost_network.node[17].content_store 	hits[17] 	0
scalar tiger_cost_network.node[17].content_store 	misses[17] 	67702
scalar tiger_cost_network.node[17].content_store 	decision_yes[17] 	0
scalar tiger_cost_network.node[17].content_store 	decision_no[17] 	67702
scalar tiger_cost_network.node[17].content_store 	decision_ratio[17] 	0
scalar tiger_cost_network.node[17].content_store 	correction_factor[17] 	0.0027225701061802
scalar tiger_cost_network.node[17].content_store 	kappa[17] 	1
scalar tiger_cost_network.node[18].core_layer 	interests[18] 	190217
scalar tiger_cost_network.node[18].core_layer 	repo_load[18] 	183312
scalar tiger_cost_network.node[18].core_layer 	data[18] 	6905
scalar tiger_cost_network.node[18].content_store 	p_hit[18] 	0
scalar tiger_cost_network.node[18].content_store 	hits[18] 	0
scalar tiger_cost_network.node[18].content_store 	misses[18] 	190217
scalar tiger_cost_network.node[18].content_store 	decision_yes[18] 	0
scalar tiger_cost_network.node[18].content_store 	decision_no[18] 	190217
scalar tiger_cost_network.node[18].content_store 	decision_ratio[18] 	0
scalar tiger_cost_network.node[18].content_store 	correction_factor[18] 	0.0027225701061802
scalar tiger_cost_network.node[18].content_store 	kappa[18] 	1
scalar tiger_cost_network.node[19].core_layer 	interests[19] 	0
scalar tiger_cost_network.node[19].core_layer 	data[19] 	0
scalar tiger_cost_network.node[19].content_store 	p_hit[19] 	-nan
scalar tiger_cost_network.node[19].content_store 	hits[19] 	0
scalar tiger_cost_network.node[19].content_store 	misses[19] 	0
scalar tiger_cost_network.node[19].content_store 	decision_yes[19] 	0
scalar tiger_cost_network.node[19].content_store 	decision_no[19] 	0
scalar tiger_cost_network.node[19].content_store 	decision_ratio[19] 	0
scalar tiger_cost_network.node[19].content_store 	correction_factor[19] 	0.0027225701061802
scalar tiger_cost_network.node[19].content_store 	kappa[19] 	1
scalar tiger_cost_network.node[20].core_layer 	interests[20] 	185185
scalar tiger_cost_network.node[20].core_layer 	data[20] 	175130
scalar tiger_cost_network.node[20].content_store 	p_hit[20] 	0.053908253908254
scalar tiger_cost_network.node[20].content_store 	hits[20] 	9983
scalar tiger_cost_network.node[20].content_store 	misses[20] 	175202
scalar tiger_cost_network.node[20].content_store 	decision_yes[20] 	812
scalar tiger_cost_network.node[20].content_store 	decision_no[20] 	174318
scalar tiger_cost_network.node[20].content_store 	decision_ratio[20] 	0.0046365557014789
scalar tiger_cost_network.node[20].content_store 	correction_factor[20] 	0.0027225701061802
scalar tiger_cost_network.node[20].content_store 	kappa[20] 	1
scalar tiger_cost_network.node[21].core_layer 	interests[21] 	0
scalar tiger_cost_network.node[21].core_layer 	data[21] 	0
scalar tiger_cost_network.node[21].content_store 	p_hit[21] 	-nan
scalar tiger_cost_network.node[21].content_store 	hits[21] 	0
scalar tiger_cost_network.node[21].content_store 	misses[21] 	0
scalar tiger_cost_network.node[21].content_store 	decision_yes[21] 	0
scalar tiger_cost_network.node[21].content_store 	decision_no[21] 	0
scalar tiger_cost_network.node[21].content_store 	decision_ratio[21] 	0
scalar tiger_cost_network.node[21].content_store 	correction_factor[21] 	0.0027225701061802
scalar tiger_cost_network.node[21].content_store 	kappa[21] 	1
scalar tiger_cost_network.client[2] 	hdistance[2] 	3.1524766035152
scalar tiger_cost_network.client[2] 	downloads[2] 	179621
scalar tiger_cost_network.client[2] 	avg_time[2] 	0.001403016161
scalar tiger_cost_network.client[6] 	hdistance[6] 	2.7880480390359
scalar tiger_cost_network.client[6] 	downloads[6] 	179937
scalar tiger_cost_network.client[6] 	avg_time[6] 	0.000819652816
scalar tiger_cost_network.client[20] 	hdistance[20] 	2.9901700924089
scalar tiger_cost_network.client[20] 	downloads[20] 	179961
scalar tiger_cost_network.client[20] 	avg_time[20] 	0.000800849343
