version 2
run General-9-20140930-16:26:14-28691
attr D costaware0.01
attr F nrr
attr R lru
attr a 1
attr configname General
attr csize 1e3
attr ctlg 1e5
attr datetime 20140930-16:26:14
attr experiment General
attr inifile omnetpp.ini
attr iterationvars "$net=tiger_cost, $rep=16, $priceratiovalue=10, $weights=0.333_0.333_0.334, $lambda=100, $a=1, $ctlg=1e5, $F=nrr, $ttl=10, $D=costaware0.01, $xi=1, $R=lru, $csize=1e3, $pricebits=0, $window=60, $variance=0.05, $mytime=1800"
attr iterationvars2 "$net=tiger_cost, $rep=16, $priceratiovalue=10, $weights=0.333_0.333_0.334, $lambda=100, $a=1, $ctlg=1e5, $F=nrr, $ttl=10, $D=costaware0.01, $xi=1, $R=lru, $csize=1e3, $pricebits=0, $window=60, $variance=0.05, $mytime=1800, $repetition=0"
attr lambda 100
attr measurement "$net=tiger_cost, $rep=16, $priceratiovalue=10, $weights=0.333_0.333_0.334, $lambda=100, $a=1, $ctlg=1e5, $F=nrr, $ttl=10, $D=costaware0.01, $xi=1, $R=lru, $csize=1e3, $pricebits=0, $window=60, $variance=0.05, $mytime=1800"
attr mytime 1800
attr net tiger_cost
attr network networks.${net=level3_cost,tiger_cost,dtelecom_cost}_network
attr pricebits 0
attr priceratiovalue 10
attr processid 28691
attr rep 16
attr repetition 0
attr replication #0
attr resultdir results
attr runnumber 9
attr seedset 16
attr ttl 10
attr variance 0.05
attr weights 0.333_0.333_0.334
attr window 60
attr xi 1

scalar . 	a 	1
scalar . 	csize 	1e3
scalar . 	ctlg 	1e5
scalar . 	lambda 	100
scalar . 	mytime 	1800
scalar . 	pricebits 	0
scalar . 	priceratiovalue 	10
scalar . 	rep 	16
scalar . 	ttl 	10
scalar . 	variance 	0.05
scalar . 	window 	60
scalar . 	xi 	1
scalar tiger_cost_network.content_distribution 	repo-0 	10
scalar tiger_cost_network.content_distribution 	repo-1 	13
scalar tiger_cost_network.content_distribution 	repo-2 	8
scalar tiger_cost_network.content_distribution 	client-0 	20
scalar tiger_cost_network.content_distribution 	client-1 	18
scalar tiger_cost_network.content_distribution 	client-2 	12
scalar tiger_cost_network.content_distribution 	repo-0_card 	33301
scalar tiger_cost_network.content_distribution 	repo-0_price 	10
scalar tiger_cost_network.content_distribution 	repo-1_card 	33210
scalar tiger_cost_network.content_distribution 	repo-1_price 	1
scalar tiger_cost_network.content_distribution 	repo-2_card 	33489
scalar tiger_cost_network.content_distribution 	repo-2_price 	0
scalar tiger_cost_network.statistics 	repo_popularity[0] 	0.32646379131244
scalar tiger_cost_network.statistics 	repo_popularity[1] 	0.28759362553521
scalar tiger_cost_network.statistics 	repo_popularity[2] 	0.38594258315236
scalar tiger_cost_network.statistics 	stabilization_time 	36060
scalar tiger_cost_network.statistics 	p_hit 	0.084519707782521
scalar tiger_cost_network.statistics 	interests 	86081.590909091
scalar tiger_cost_network.statistics 	data 	61579.681818182
scalar tiger_cost_network.statistics 	hdistance 	3.2196766580225
scalar tiger_cost_network.statistics 	avg_time 	0.00088669159
scalar tiger_cost_network.statistics 	downloads 	538396
scalar tiger_cost_network.statistics 	total_cost 	896796
scalar tiger_cost_network.statistics 	total_replicas 	100000
scalar tiger_cost_network.statistics 	inner_hit 	0.29794426407328
scalar tiger_cost_network.node[0].core_layer 	interests[0] 	175401
scalar tiger_cost_network.node[0].core_layer 	data[0] 	140200
scalar tiger_cost_network.node[0].core_layer 	repo_int[0] 	377984
scalar tiger_cost_network.node[0].content_store 	p_hit[0] 	0.20068870759004
scalar tiger_cost_network.node[0].content_store 	hits[0] 	35201
scalar tiger_cost_network.node[0].content_store 	misses[0] 	140200
scalar tiger_cost_network.node[0].content_store 	decision_yes[0] 	896
scalar tiger_cost_network.node[0].content_store 	decision_no[0] 	139304
scalar tiger_cost_network.node[0].content_store 	decision_ratio[0] 	0.0063908701854494
scalar tiger_cost_network.node[0].content_store 	correction_factor[0] 	0.0027225701061802
scalar tiger_cost_network.node[0].content_store 	kappa[0] 	1
scalar tiger_cost_network.node[1].core_layer 	interests[1] 	128839
scalar tiger_cost_network.node[1].core_layer 	data[1] 	101368
scalar tiger_cost_network.node[1].content_store 	p_hit[1] 	0.21321959965538
scalar tiger_cost_network.node[1].content_store 	hits[1] 	27471
scalar tiger_cost_network.node[1].content_store 	misses[1] 	101368
scalar tiger_cost_network.node[1].content_store 	decision_yes[1] 	733
scalar tiger_cost_network.node[1].content_store 	decision_no[1] 	100635
scalar tiger_cost_network.node[1].content_store 	decision_ratio[1] 	0.007231078841449
scalar tiger_cost_network.node[1].content_store 	correction_factor[1] 	0.0027225701061802
scalar tiger_cost_network.node[1].content_store 	kappa[1] 	1
scalar tiger_cost_network.node[2].core_layer 	interests[2] 	90497
scalar tiger_cost_network.node[2].core_layer 	data[2] 	90497
scalar tiger_cost_network.node[2].content_store 	p_hit[2] 	0
scalar tiger_cost_network.node[2].content_store 	hits[2] 	0
scalar tiger_cost_network.node[2].content_store 	misses[2] 	90497
scalar tiger_cost_network.node[2].content_store 	decision_yes[2] 	0
scalar tiger_cost_network.node[2].content_store 	decision_no[2] 	90497
scalar tiger_cost_network.node[2].content_store 	decision_ratio[2] 	0
scalar tiger_cost_network.node[2].content_store 	correction_factor[2] 	0.0027225701061802
scalar tiger_cost_network.node[2].content_store 	kappa[2] 	1
scalar tiger_cost_network.node[3].core_layer 	interests[3] 	0
scalar tiger_cost_network.node[3].core_layer 	data[3] 	0
scalar tiger_cost_network.node[3].content_store 	p_hit[3] 	-nan
scalar tiger_cost_network.node[3].content_store 	hits[3] 	0
scalar tiger_cost_network.node[3].content_store 	misses[3] 	0
scalar tiger_cost_network.node[3].content_store 	decision_yes[3] 	0
scalar tiger_cost_network.node[3].content_store 	decision_no[3] 	0
scalar tiger_cost_network.node[3].content_store 	decision_ratio[3] 	0
scalar tiger_cost_network.node[3].content_store 	correction_factor[3] 	0.0027225701061802
scalar tiger_cost_network.node[3].content_store 	kappa[3] 	1
scalar tiger_cost_network.node[4].core_layer 	interests[4] 	0
scalar tiger_cost_network.node[4].core_layer 	data[4] 	0
scalar tiger_cost_network.node[4].content_store 	p_hit[4] 	-nan
scalar tiger_cost_network.node[4].content_store 	hits[4] 	0
scalar tiger_cost_network.node[4].content_store 	misses[4] 	0
scalar tiger_cost_network.node[4].content_store 	decision_yes[4] 	0
scalar tiger_cost_network.node[4].content_store 	decision_no[4] 	0
scalar tiger_cost_network.node[4].content_store 	decision_ratio[4] 	0
scalar tiger_cost_network.node[4].content_store 	correction_factor[4] 	0.0027225701061802
scalar tiger_cost_network.node[4].content_store 	kappa[4] 	1
scalar tiger_cost_network.node[5].core_layer 	interests[5] 	0
scalar tiger_cost_network.node[5].core_layer 	data[5] 	0
scalar tiger_cost_network.node[5].content_store 	p_hit[5] 	-nan
scalar tiger_cost_network.node[5].content_store 	hits[5] 	0
scalar tiger_cost_network.node[5].content_store 	misses[5] 	0
scalar tiger_cost_network.node[5].content_store 	decision_yes[5] 	0
scalar tiger_cost_network.node[5].content_store 	decision_no[5] 	0
scalar tiger_cost_network.node[5].content_store 	decision_ratio[5] 	0
scalar tiger_cost_network.node[5].content_store 	correction_factor[5] 	0.0027225701061802
scalar tiger_cost_network.node[5].content_store 	kappa[5] 	1
scalar tiger_cost_network.node[6].core_layer 	interests[6] 	0
scalar tiger_cost_network.node[6].core_layer 	data[6] 	0
scalar tiger_cost_network.node[6].content_store 	p_hit[6] 	-nan
scalar tiger_cost_network.node[6].content_store 	hits[6] 	0
scalar tiger_cost_network.node[6].content_store 	misses[6] 	0
scalar tiger_cost_network.node[6].content_store 	decision_yes[6] 	0
scalar tiger_cost_network.node[6].content_store 	decision_no[6] 	0
scalar tiger_cost_network.node[6].content_store 	decision_ratio[6] 	0
scalar tiger_cost_network.node[6].content_store 	correction_factor[6] 	0.0027225701061802
scalar tiger_cost_network.node[6].content_store 	kappa[6] 	1
scalar tiger_cost_network.node[7].core_layer 	interests[7] 	189227
scalar tiger_cost_network.node[7].core_layer 	data[7] 	182475
scalar tiger_cost_network.node[7].content_store 	p_hit[7] 	0.035687296210372
scalar tiger_cost_network.node[7].content_store 	hits[7] 	6753
scalar tiger_cost_network.node[7].content_store 	misses[7] 	182474
scalar tiger_cost_network.node[7].content_store 	decision_yes[7] 	711
scalar tiger_cost_network.node[7].content_store 	decision_no[7] 	181764
scalar tiger_cost_network.node[7].content_store 	decision_ratio[7] 	0.0038964241676942
scalar tiger_cost_network.node[7].content_store 	correction_factor[7] 	0.0027225701061802
scalar tiger_cost_network.node[7].content_store 	kappa[7] 	1
scalar tiger_cost_network.node[8].core_layer 	interests[8] 	254636
scalar tiger_cost_network.node[8].core_layer 	repo_load[8] 	207110
scalar tiger_cost_network.node[8].core_layer 	data[8] 	38342
scalar tiger_cost_network.node[8].content_store 	p_hit[8] 	0.036067170392246
scalar tiger_cost_network.node[8].content_store 	hits[8] 	9184
scalar tiger_cost_network.node[8].content_store 	misses[8] 	245452
scalar tiger_cost_network.node[8].content_store 	decision_yes[8] 	705
scalar tiger_cost_network.node[8].content_store 	decision_no[8] 	244747
scalar tiger_cost_network.node[8].content_store 	decision_ratio[8] 	0.0028722520085393
scalar tiger_cost_network.node[8].content_store 	correction_factor[8] 	0.0027225701061802
scalar tiger_cost_network.node[8].content_store 	kappa[8] 	1
scalar tiger_cost_network.node[9].core_layer 	interests[9] 	0
scalar tiger_cost_network.node[9].core_layer 	data[9] 	0
scalar tiger_cost_network.node[9].content_store 	p_hit[9] 	-nan
scalar tiger_cost_network.node[9].content_store 	hits[9] 	0
scalar tiger_cost_network.node[9].content_store 	misses[9] 	0
scalar tiger_cost_network.node[9].content_store 	decision_yes[9] 	0
scalar tiger_cost_network.node[9].content_store 	decision_no[9] 	0
scalar tiger_cost_network.node[9].content_store 	decision_ratio[9] 	0
scalar tiger_cost_network.node[9].content_store 	correction_factor[9] 	0.0027225701061802
scalar tiger_cost_network.node[9].content_store 	kappa[9] 	1
scalar tiger_cost_network.node[10].core_layer 	interests[10] 	88517
scalar tiger_cost_network.node[10].core_layer 	repo_load[10] 	80658
scalar tiger_cost_network.node[10].core_layer 	data[10] 	0
scalar tiger_cost_network.node[10].content_store 	p_hit[10] 	0.088785205101845
scalar tiger_cost_network.node[10].content_store 	hits[10] 	7859
scalar tiger_cost_network.node[10].content_store 	misses[10] 	80658
scalar tiger_cost_network.node[10].content_store 	decision_yes[10] 	2218
scalar tiger_cost_network.node[10].content_store 	decision_no[10] 	78440
scalar tiger_cost_network.node[10].content_store 	decision_ratio[10] 	0.027498822187508
scalar tiger_cost_network.node[10].content_store 	correction_factor[10] 	0.0027225701061802
scalar tiger_cost_network.node[10].content_store 	kappa[10] 	1
scalar tiger_cost_network.node[11].core_layer 	interests[11] 	77937
scalar tiger_cost_network.node[11].core_layer 	data[11] 	59311
scalar tiger_cost_network.node[11].content_store 	p_hit[11] 	0.23898790048372
scalar tiger_cost_network.node[11].content_store 	hits[11] 	18626
scalar tiger_cost_network.node[11].content_store 	misses[11] 	59311
scalar tiger_cost_network.node[11].content_store 	decision_yes[11] 	1443
scalar tiger_cost_network.node[11].content_store 	decision_no[11] 	57868
scalar tiger_cost_network.node[11].content_store 	decision_ratio[11] 	0.024329382407985
scalar tiger_cost_network.node[11].content_store 	correction_factor[11] 	0.0027225701061802
scalar tiger_cost_network.node[11].content_store 	kappa[11] 	1
scalar tiger_cost_network.node[12].core_layer 	interests[12] 	275427
scalar tiger_cost_network.node[12].core_layer 	data[12] 	253013
scalar tiger_cost_network.node[12].content_store 	p_hit[12] 	0.080180955389268
scalar tiger_cost_network.node[12].content_store 	hits[12] 	22084
scalar tiger_cost_network.node[12].content_store 	misses[12] 	253343
scalar tiger_cost_network.node[12].content_store 	decision_yes[12] 	1018
scalar tiger_cost_network.node[12].content_store 	decision_no[12] 	251995
scalar tiger_cost_network.node[12].content_store 	decision_ratio[12] 	0.0040235086734674
scalar tiger_cost_network.node[12].content_store 	correction_factor[12] 	0.0027225701061802
scalar tiger_cost_network.node[12].content_store 	kappa[12] 	1
scalar tiger_cost_network.node[13].core_layer 	interests[13] 	108581
scalar tiger_cost_network.node[13].core_layer 	repo_load[13] 	90216
scalar tiger_cost_network.node[13].core_layer 	data[13] 	0
scalar tiger_cost_network.node[13].content_store 	p_hit[13] 	0.16913640508008
scalar tiger_cost_network.node[13].content_store 	hits[13] 	18365
scalar tiger_cost_network.node[13].content_store 	misses[13] 	90216
scalar tiger_cost_network.node[13].content_store 	decision_yes[13] 	243
scalar tiger_cost_network.node[13].content_store 	decision_no[13] 	89973
scalar tiger_cost_network.node[13].content_store 	decision_ratio[13] 	0.0026935355147646
scalar tiger_cost_network.node[13].content_store 	correction_factor[13] 	0.0027225701061802
scalar tiger_cost_network.node[13].content_store 	kappa[13] 	1
scalar tiger_cost_network.node[14].core_layer 	interests[14] 	0
scalar tiger_cost_network.node[14].core_layer 	data[14] 	0
scalar tiger_cost_network.node[14].content_store 	p_hit[14] 	-nan
scalar tiger_cost_network.node[14].content_store 	hits[14] 	0
scalar tiger_cost_network.node[14].content_store 	misses[14] 	0
scalar tiger_cost_network.node[14].content_store 	decision_yes[14] 	0
scalar tiger_cost_network.node[14].content_store 	decision_no[14] 	0
scalar tiger_cost_network.node[14].content_store 	decision_ratio[14] 	0
scalar tiger_cost_network.node[14].content_store 	correction_factor[14] 	0.0027225701061802
scalar tiger_cost_network.node[14].content_store 	kappa[14] 	1
scalar tiger_cost_network.node[15].core_layer 	interests[15] 	0
scalar tiger_cost_network.node[15].core_layer 	data[15] 	0
scalar tiger_cost_network.node[15].content_store 	p_hit[15] 	-nan
scalar tiger_cost_network.node[15].content_store 	hits[15] 	0
scalar tiger_cost_network.node[15].content_store 	misses[15] 	0
scalar tiger_cost_network.node[15].content_store 	decision_yes[15] 	0
scalar tiger_cost_network.node[15].content_store 	decision_no[15] 	0
scalar tiger_cost_network.node[15].content_store 	decision_ratio[15] 	0
scalar tiger_cost_network.node[15].content_store 	correction_factor[15] 	0.0027225701061802
scalar tiger_cost_network.node[15].content_store 	kappa[15] 	1
scalar tiger_cost_network.node[16].core_layer 	interests[16] 	0
scalar tiger_cost_network.node[16].core_layer 	data[16] 	0
scalar tiger_cost_network.node[16].content_store 	p_hit[16] 	-nan
scalar tiger_cost_network.node[16].content_store 	hits[16] 	0
scalar tiger_cost_network.node[16].content_store 	misses[16] 	0
scalar tiger_cost_network.node[16].content_store 	decision_yes[16] 	0
scalar tiger_cost_network.node[16].content_store 	decision_no[16] 	0
scalar tiger_cost_network.node[16].content_store 	decision_ratio[16] 	0
scalar tiger_cost_network.node[16].content_store 	correction_factor[16] 	0.0027225701061802
scalar tiger_cost_network.node[16].content_store 	kappa[16] 	1
scalar tiger_cost_network.node[17].core_layer 	interests[17] 	0
scalar tiger_cost_network.node[17].core_layer 	data[17] 	0
scalar tiger_cost_network.node[17].content_store 	p_hit[17] 	-nan
scalar tiger_cost_network.node[17].content_store 	hits[17] 	0
scalar tiger_cost_network.node[17].content_store 	misses[17] 	0
scalar tiger_cost_network.node[17].content_store 	decision_yes[17] 	0
scalar tiger_cost_network.node[17].content_store 	decision_no[17] 	0
scalar tiger_cost_network.node[17].content_store 	decision_ratio[17] 	0
scalar tiger_cost_network.node[17].content_store 	correction_factor[17] 	0.0027225701061802
scalar tiger_cost_network.node[17].content_store 	kappa[17] 	1
scalar tiger_cost_network.node[18].core_layer 	interests[18] 	246340
scalar tiger_cost_network.node[18].core_layer 	data[18] 	238072
scalar tiger_cost_network.node[18].content_store 	p_hit[18] 	0.032580985629618
scalar tiger_cost_network.node[18].content_store 	hits[18] 	8026
scalar tiger_cost_network.node[18].content_store 	misses[18] 	238314
scalar tiger_cost_network.node[18].content_store 	decision_yes[18] 	930
scalar tiger_cost_network.node[18].content_store 	decision_no[18] 	237142
scalar tiger_cost_network.node[18].content_store 	decision_ratio[18] 	0.0039063812628113
scalar tiger_cost_network.node[18].content_store 	correction_factor[18] 	0.0027225701061802
scalar tiger_cost_network.node[18].content_store 	kappa[18] 	1
scalar tiger_cost_network.node[19].core_layer 	interests[19] 	0
scalar tiger_cost_network.node[19].core_layer 	data[19] 	0
scalar tiger_cost_network.node[19].content_store 	p_hit[19] 	-nan
scalar tiger_cost_network.node[19].content_store 	hits[19] 	0
scalar tiger_cost_network.node[19].content_store 	misses[19] 	0
scalar tiger_cost_network.node[19].content_store 	decision_yes[19] 	0
scalar tiger_cost_network.node[19].content_store 	decision_no[19] 	0
scalar tiger_cost_network.node[19].content_store 	decision_ratio[19] 	0
scalar tiger_cost_network.node[19].content_store 	correction_factor[19] 	0.0027225701061802
scalar tiger_cost_network.node[19].content_store 	kappa[19] 	1
scalar tiger_cost_network.node[20].core_layer 	interests[20] 	258393
scalar tiger_cost_network.node[20].core_layer 	data[20] 	251475
scalar tiger_cost_network.node[20].content_store 	p_hit[20] 	0.025132259774839
scalar tiger_cost_network.node[20].content_store 	hits[20] 	6494
scalar tiger_cost_network.node[20].content_store 	misses[20] 	251899
scalar tiger_cost_network.node[20].content_store 	decision_yes[20] 	845
scalar tiger_cost_network.node[20].content_store 	decision_no[20] 	250630
scalar tiger_cost_network.node[20].content_store 	decision_ratio[20] 	0.0033601749676906
scalar tiger_cost_network.node[20].content_store 	correction_factor[20] 	0.0027225701061802
scalar tiger_cost_network.node[20].content_store 	kappa[20] 	1
scalar tiger_cost_network.node[21].core_layer 	interests[21] 	0
scalar tiger_cost_network.node[21].core_layer 	data[21] 	0
scalar tiger_cost_network.node[21].content_store 	p_hit[21] 	-nan
scalar tiger_cost_network.node[21].content_store 	hits[21] 	0
scalar tiger_cost_network.node[21].content_store 	misses[21] 	0
scalar tiger_cost_network.node[21].content_store 	decision_yes[21] 	0
scalar tiger_cost_network.node[21].content_store 	decision_no[21] 	0
scalar tiger_cost_network.node[21].content_store 	decision_ratio[21] 	0
scalar tiger_cost_network.node[21].content_store 	correction_factor[21] 	0.0027225701061802
scalar tiger_cost_network.node[21].content_store 	kappa[21] 	1
scalar tiger_cost_network.client[12] 	hdistance[12] 	2.7225272885555
scalar tiger_cost_network.client[12] 	downloads[12] 	179196
scalar tiger_cost_network.client[12] 	avg_time[12] 	0.000781376993
scalar tiger_cost_network.client[18] 	hdistance[18] 	3.4575043999376
scalar tiger_cost_network.client[18] 	downloads[18] 	179548
scalar tiger_cost_network.client[18] 	avg_time[18] 	0.000892538228
scalar tiger_cost_network.client[20] 	hdistance[20] 	3.4789982855743
scalar tiger_cost_network.client[20] 	downloads[20] 	179652
scalar tiger_cost_network.client[20] 	avg_time[20] 	0.000986159549
