version 2
run General-9-20140930-18:59:21-22573
attr D costaware0.01
attr F nrr
attr R lru
attr a 1
attr configname General
attr csize 1e3
attr ctlg 1e5
attr datetime 20140930-18:59:21
attr experiment General
attr inifile omnetpp.ini
attr iterationvars "$net=tiger_cost, $rep=7, $priceratiovalue=10, $weights=0.333_0.333_0.334, $lambda=100, $a=1, $ctlg=1e5, $F=nrr, $ttl=10, $D=costaware0.01, $xi=1, $R=lru, $csize=1e3, $pricebits=0, $window=60, $variance=0.05, $mytime=1800"
attr iterationvars2 "$net=tiger_cost, $rep=7, $priceratiovalue=10, $weights=0.333_0.333_0.334, $lambda=100, $a=1, $ctlg=1e5, $F=nrr, $ttl=10, $D=costaware0.01, $xi=1, $R=lru, $csize=1e3, $pricebits=0, $window=60, $variance=0.05, $mytime=1800, $repetition=0"
attr lambda 100
attr measurement "$net=tiger_cost, $rep=7, $priceratiovalue=10, $weights=0.333_0.333_0.334, $lambda=100, $a=1, $ctlg=1e5, $F=nrr, $ttl=10, $D=costaware0.01, $xi=1, $R=lru, $csize=1e3, $pricebits=0, $window=60, $variance=0.05, $mytime=1800"
attr mytime 1800
attr net tiger_cost
attr network networks.${net=tiger_cost,dtelecom_cost}_network
attr pricebits 0
attr priceratiovalue 10
attr processid 22573
attr rep 7
attr repetition 0
attr replication #0
attr resultdir results
attr runnumber 9
attr seedset 7
attr ttl 10
attr variance 0.05
attr weights 0.333_0.333_0.334
attr window 60
attr xi 1

scalar . 	a 	1
scalar . 	csize 	1e3
scalar . 	ctlg 	1e5
scalar . 	lambda 	100
scalar . 	mytime 	1800
scalar . 	pricebits 	0
scalar . 	priceratiovalue 	10
scalar . 	rep 	7
scalar . 	ttl 	10
scalar . 	variance 	0.05
scalar . 	window 	60
scalar . 	xi 	1
scalar tiger_cost_network.content_distribution 	repo-0 	21
scalar tiger_cost_network.content_distribution 	repo-1 	4
scalar tiger_cost_network.content_distribution 	repo-2 	12
scalar tiger_cost_network.content_distribution 	client-0 	4
scalar tiger_cost_network.content_distribution 	client-1 	6
scalar tiger_cost_network.content_distribution 	client-2 	11
scalar tiger_cost_network.content_distribution 	repo-0_card 	33105
scalar tiger_cost_network.content_distribution 	repo-0_price 	0
scalar tiger_cost_network.content_distribution 	repo-1_card 	33508
scalar tiger_cost_network.content_distribution 	repo-1_price 	1
scalar tiger_cost_network.content_distribution 	repo-2_card 	33387
scalar tiger_cost_network.content_distribution 	repo-2_price 	10
scalar tiger_cost_network.statistics 	repo_popularity[0] 	0.38081187055787
scalar tiger_cost_network.statistics 	repo_popularity[1] 	0.26942063079195
scalar tiger_cost_network.statistics 	repo_popularity[2] 	0.3497674986502
scalar tiger_cost_network.statistics 	stabilization_time 	36060
scalar tiger_cost_network.statistics 	p_hit 	0.079267171671533
scalar tiger_cost_network.statistics 	interests 	87523.909090909
scalar tiger_cost_network.statistics 	data 	62991.590909091
scalar tiger_cost_network.statistics 	hdistance 	3.2876814135226
scalar tiger_cost_network.statistics 	avg_time 	0.000915370231
scalar tiger_cost_network.statistics 	downloads 	539201
scalar tiger_cost_network.statistics 	total_cost 	939337
scalar tiger_cost_network.statistics 	total_replicas 	100000
scalar tiger_cost_network.statistics 	inner_hit 	0.28307069163447
scalar tiger_cost_network.node[0].core_layer 	interests[0] 	58270
scalar tiger_cost_network.node[0].core_layer 	data[0] 	52060
scalar tiger_cost_network.node[0].core_layer 	repo_int[0] 	386569
scalar tiger_cost_network.node[0].content_store 	p_hit[0] 	0.10657285052343
scalar tiger_cost_network.node[0].content_store 	hits[0] 	6210
scalar tiger_cost_network.node[0].content_store 	misses[0] 	52060
scalar tiger_cost_network.node[0].content_store 	decision_yes[0] 	708
scalar tiger_cost_network.node[0].content_store 	decision_no[0] 	51352
scalar tiger_cost_network.node[0].content_store 	decision_ratio[0] 	0.013599692662313
scalar tiger_cost_network.node[0].content_store 	correction_factor[0] 	0.0027225701061802
scalar tiger_cost_network.node[0].content_store 	kappa[0] 	1
scalar tiger_cost_network.node[1].core_layer 	interests[1] 	2659
scalar tiger_cost_network.node[1].core_layer 	data[1] 	2659
scalar tiger_cost_network.node[1].content_store 	p_hit[1] 	0
scalar tiger_cost_network.node[1].content_store 	hits[1] 	0
scalar tiger_cost_network.node[1].content_store 	misses[1] 	2659
scalar tiger_cost_network.node[1].content_store 	decision_yes[1] 	0
scalar tiger_cost_network.node[1].content_store 	decision_no[1] 	2659
scalar tiger_cost_network.node[1].content_store 	decision_ratio[1] 	0
scalar tiger_cost_network.node[1].content_store 	correction_factor[1] 	0.0027225701061802
scalar tiger_cost_network.node[1].content_store 	kappa[1] 	1
scalar tiger_cost_network.node[2].core_layer 	interests[2] 	88149
scalar tiger_cost_network.node[2].core_layer 	data[2] 	80160
scalar tiger_cost_network.node[2].content_store 	p_hit[2] 	0.090630636762754
scalar tiger_cost_network.node[2].content_store 	hits[2] 	7989
scalar tiger_cost_network.node[2].content_store 	misses[2] 	80160
scalar tiger_cost_network.node[2].content_store 	decision_yes[2] 	780
scalar tiger_cost_network.node[2].content_store 	decision_no[2] 	79380
scalar tiger_cost_network.node[2].content_store 	decision_ratio[2] 	0.0097305389221557
scalar tiger_cost_network.node[2].content_store 	correction_factor[2] 	0.0027225701061802
scalar tiger_cost_network.node[2].content_store 	kappa[2] 	1
scalar tiger_cost_network.node[3].core_layer 	interests[3] 	91599
scalar tiger_cost_network.node[3].core_layer 	data[3] 	83414
scalar tiger_cost_network.node[3].content_store 	p_hit[3] 	0.089356870708196
scalar tiger_cost_network.node[3].content_store 	hits[3] 	8185
scalar tiger_cost_network.node[3].content_store 	misses[3] 	83414
scalar tiger_cost_network.node[3].content_store 	decision_yes[3] 	792
scalar tiger_cost_network.node[3].content_store 	decision_no[3] 	82622
scalar tiger_cost_network.node[3].content_store 	decision_ratio[3] 	0.0094948090248639
scalar tiger_cost_network.node[3].content_store 	correction_factor[3] 	0.0027225701061802
scalar tiger_cost_network.node[3].content_store 	kappa[3] 	1
scalar tiger_cost_network.node[4].core_layer 	interests[4] 	270795
scalar tiger_cost_network.node[4].core_layer 	repo_load[4] 	97677
scalar tiger_cost_network.node[4].core_layer 	data[4] 	130253
scalar tiger_cost_network.node[4].content_store 	p_hit[4] 	0.15758045754168
scalar tiger_cost_network.node[4].content_store 	hits[4] 	42672
scalar tiger_cost_network.node[4].content_store 	misses[4] 	228123
scalar tiger_cost_network.node[4].content_store 	decision_yes[4] 	980
scalar tiger_cost_network.node[4].content_store 	decision_no[4] 	226950
scalar tiger_cost_network.node[4].content_store 	decision_ratio[4] 	0.0042995656561225
scalar tiger_cost_network.node[4].content_store 	correction_factor[4] 	0.0027225701061802
scalar tiger_cost_network.node[4].content_store 	kappa[4] 	1
scalar tiger_cost_network.node[5].core_layer 	interests[5] 	61763
scalar tiger_cost_network.node[5].core_layer 	data[5] 	52175
scalar tiger_cost_network.node[5].content_store 	p_hit[5] 	0.15523857325583
scalar tiger_cost_network.node[5].content_store 	hits[5] 	9588
scalar tiger_cost_network.node[5].content_store 	misses[5] 	52175
scalar tiger_cost_network.node[5].content_store 	decision_yes[5] 	75
scalar tiger_cost_network.node[5].content_store 	decision_no[5] 	52100
scalar tiger_cost_network.node[5].content_store 	decision_ratio[5] 	0.0014374700527072
scalar tiger_cost_network.node[5].content_store 	correction_factor[5] 	0.0027225701061802
scalar tiger_cost_network.node[5].content_store 	kappa[5] 	1
scalar tiger_cost_network.node[6].core_layer 	interests[6] 	182236
scalar tiger_cost_network.node[6].core_layer 	data[6] 	175526
scalar tiger_cost_network.node[6].content_store 	p_hit[6] 	0.035294892337409
scalar tiger_cost_network.node[6].content_store 	hits[6] 	6432
scalar tiger_cost_network.node[6].content_store 	misses[6] 	175804
scalar tiger_cost_network.node[6].content_store 	decision_yes[6] 	844
scalar tiger_cost_network.node[6].content_store 	decision_no[6] 	174682
scalar tiger_cost_network.node[6].content_store 	decision_ratio[6] 	0.0048084044529016
scalar tiger_cost_network.node[6].content_store 	correction_factor[6] 	0.0027225701061802
scalar tiger_cost_network.node[6].content_store 	kappa[6] 	1
scalar tiger_cost_network.node[7].core_layer 	interests[7] 	70350
scalar tiger_cost_network.node[7].core_layer 	data[7] 	70350
scalar tiger_cost_network.node[7].content_store 	p_hit[7] 	0
scalar tiger_cost_network.node[7].content_store 	hits[7] 	0
scalar tiger_cost_network.node[7].content_store 	misses[7] 	70350
scalar tiger_cost_network.node[7].content_store 	decision_yes[7] 	0
scalar tiger_cost_network.node[7].content_store 	decision_no[7] 	70350
scalar tiger_cost_network.node[7].content_store 	decision_ratio[7] 	0
scalar tiger_cost_network.node[7].content_store 	correction_factor[7] 	0.0027225701061802
scalar tiger_cost_network.node[7].content_store 	kappa[7] 	1
scalar tiger_cost_network.node[8].core_layer 	interests[8] 	70350
scalar tiger_cost_network.node[8].core_layer 	data[8] 	70350
scalar tiger_cost_network.node[8].content_store 	p_hit[8] 	0
scalar tiger_cost_network.node[8].content_store 	hits[8] 	0
scalar tiger_cost_network.node[8].content_store 	misses[8] 	70350
scalar tiger_cost_network.node[8].content_store 	decision_yes[8] 	0
scalar tiger_cost_network.node[8].content_store 	decision_no[8] 	70350
scalar tiger_cost_network.node[8].content_store 	decision_ratio[8] 	0
scalar tiger_cost_network.node[8].content_store 	correction_factor[8] 	0.0027225701061802
scalar tiger_cost_network.node[8].content_store 	kappa[8] 	1
scalar tiger_cost_network.node[9].core_layer 	interests[9] 	68271
scalar tiger_cost_network.node[9].core_layer 	data[9] 	68271
scalar tiger_cost_network.node[9].content_store 	p_hit[9] 	0
scalar tiger_cost_network.node[9].content_store 	hits[9] 	0
scalar tiger_cost_network.node[9].content_store 	misses[9] 	68271
scalar tiger_cost_network.node[9].content_store 	decision_yes[9] 	0
scalar tiger_cost_network.node[9].content_store 	decision_no[9] 	68271
scalar tiger_cost_network.node[9].content_store 	decision_ratio[9] 	0
scalar tiger_cost_network.node[9].content_store 	correction_factor[9] 	0.0027225701061802
scalar tiger_cost_network.node[9].content_store 	kappa[9] 	1
scalar tiger_cost_network.node[10].core_layer 	interests[10] 	68271
scalar tiger_cost_network.node[10].core_layer 	data[10] 	68271
scalar tiger_cost_network.node[10].content_store 	p_hit[10] 	0
scalar tiger_cost_network.node[10].content_store 	hits[10] 	0
scalar tiger_cost_network.node[10].content_store 	misses[10] 	68271
scalar tiger_cost_network.node[10].content_store 	decision_yes[10] 	0
scalar tiger_cost_network.node[10].content_store 	decision_no[10] 	68271
scalar tiger_cost_network.node[10].content_store 	decision_ratio[10] 	0
scalar tiger_cost_network.node[10].content_store 	correction_factor[10] 	0.0027225701061802
scalar tiger_cost_network.node[10].content_store 	kappa[10] 	1
scalar tiger_cost_network.node[11].core_layer 	interests[11] 	184557
scalar tiger_cost_network.node[11].core_layer 	data[11] 	171361
scalar tiger_cost_network.node[11].content_store 	p_hit[11] 	0.071284210298173
scalar tiger_cost_network.node[11].content_store 	hits[11] 	13156
scalar tiger_cost_network.node[11].content_store 	misses[11] 	171401
scalar tiger_cost_network.node[11].content_store 	decision_yes[11] 	852
scalar tiger_cost_network.node[11].content_store 	decision_no[11] 	170509
scalar tiger_cost_network.node[11].content_store 	decision_ratio[11] 	0.0049719597808136
scalar tiger_cost_network.node[11].content_store 	correction_factor[11] 	0.0027225701061802
scalar tiger_cost_network.node[11].content_store 	kappa[11] 	1
scalar tiger_cost_network.node[12].core_layer 	interests[12] 	170669
scalar tiger_cost_network.node[12].core_layer 	repo_load[12] 	84166
scalar tiger_cost_network.node[12].core_layer 	data[12] 	42521
scalar tiger_cost_network.node[12].content_store 	p_hit[12] 	0.25770350795985
scalar tiger_cost_network.node[12].content_store 	hits[12] 	43982
scalar tiger_cost_network.node[12].content_store 	misses[12] 	126687
scalar tiger_cost_network.node[12].content_store 	decision_yes[12] 	2419
scalar tiger_cost_network.node[12].content_store 	decision_no[12] 	124268
scalar tiger_cost_network.node[12].content_store 	decision_ratio[12] 	0.019094303282894
scalar tiger_cost_network.node[12].content_store 	correction_factor[12] 	0.0027225701061802
scalar tiger_cost_network.node[12].content_store 	kappa[12] 	1
scalar tiger_cost_network.node[13].core_layer 	interests[13] 	0
scalar tiger_cost_network.node[13].core_layer 	data[13] 	0
scalar tiger_cost_network.node[13].content_store 	p_hit[13] 	-nan
scalar tiger_cost_network.node[13].content_store 	hits[13] 	0
scalar tiger_cost_network.node[13].content_store 	misses[13] 	0
scalar tiger_cost_network.node[13].content_store 	decision_yes[13] 	0
scalar tiger_cost_network.node[13].content_store 	decision_no[13] 	0
scalar tiger_cost_network.node[13].content_store 	decision_ratio[13] 	0
scalar tiger_cost_network.node[13].content_store 	correction_factor[13] 	0.0027225701061802
scalar tiger_cost_network.node[13].content_store 	kappa[13] 	1
scalar tiger_cost_network.node[14].core_layer 	interests[14] 	0
scalar tiger_cost_network.node[14].core_layer 	data[14] 	0
scalar tiger_cost_network.node[14].content_store 	p_hit[14] 	-nan
scalar tiger_cost_network.node[14].content_store 	hits[14] 	0
scalar tiger_cost_network.node[14].content_store 	misses[14] 	0
scalar tiger_cost_network.node[14].content_store 	decision_yes[14] 	0
scalar tiger_cost_network.node[14].content_store 	decision_no[14] 	0
scalar tiger_cost_network.node[14].content_store 	decision_ratio[14] 	0
scalar tiger_cost_network.node[14].content_store 	correction_factor[14] 	0.0027225701061802
scalar tiger_cost_network.node[14].content_store 	kappa[14] 	1
scalar tiger_cost_network.node[15].core_layer 	interests[15] 	0
scalar tiger_cost_network.node[15].core_layer 	data[15] 	0
scalar tiger_cost_network.node[15].content_store 	p_hit[15] 	-nan
scalar tiger_cost_network.node[15].content_store 	hits[15] 	0
scalar tiger_cost_network.node[15].content_store 	misses[15] 	0
scalar tiger_cost_network.node[15].content_store 	decision_yes[15] 	0
scalar tiger_cost_network.node[15].content_store 	decision_no[15] 	0
scalar tiger_cost_network.node[15].content_store 	decision_ratio[15] 	0
scalar tiger_cost_network.node[15].content_store 	correction_factor[15] 	0.0027225701061802
scalar tiger_cost_network.node[15].content_store 	kappa[15] 	1
scalar tiger_cost_network.node[16].core_layer 	interests[16] 	0
scalar tiger_cost_network.node[16].core_layer 	data[16] 	0
scalar tiger_cost_network.node[16].content_store 	p_hit[16] 	-nan
scalar tiger_cost_network.node[16].content_store 	hits[16] 	0
scalar tiger_cost_network.node[16].content_store 	misses[16] 	0
scalar tiger_cost_network.node[16].content_store 	decision_yes[16] 	0
scalar tiger_cost_network.node[16].content_store 	decision_no[16] 	0
scalar tiger_cost_network.node[16].content_store 	decision_ratio[16] 	0
scalar tiger_cost_network.node[16].content_store 	correction_factor[16] 	0.0027225701061802
scalar tiger_cost_network.node[16].content_store 	kappa[16] 	1
scalar tiger_cost_network.node[17].core_layer 	interests[17] 	133090
scalar tiger_cost_network.node[17].core_layer 	data[17] 	127901
scalar tiger_cost_network.node[17].content_store 	p_hit[17] 	0.038988654294087
scalar tiger_cost_network.node[17].content_store 	hits[17] 	5189
scalar tiger_cost_network.node[17].content_store 	misses[17] 	127901
scalar tiger_cost_network.node[17].content_store 	decision_yes[17] 	741
scalar tiger_cost_network.node[17].content_store 	decision_no[17] 	127160
scalar tiger_cost_network.node[17].content_store 	decision_ratio[17] 	0.0057935434437573
scalar tiger_cost_network.node[17].content_store 	correction_factor[17] 	0.0027225701061802
scalar tiger_cost_network.node[17].content_store 	kappa[17] 	1
scalar tiger_cost_network.node[18].core_layer 	interests[18] 	131007
scalar tiger_cost_network.node[18].core_layer 	data[18] 	121779
scalar tiger_cost_network.node[18].content_store 	p_hit[18] 	0.070438984176418
scalar tiger_cost_network.node[18].content_store 	hits[18] 	9228
scalar tiger_cost_network.node[18].content_store 	misses[18] 	121779
scalar tiger_cost_network.node[18].content_store 	decision_yes[18] 	716
scalar tiger_cost_network.node[18].content_store 	decision_no[18] 	121063
scalar tiger_cost_network.node[18].content_store 	decision_ratio[18] 	0.0058795030341849
scalar tiger_cost_network.node[18].content_store 	correction_factor[18] 	0.0027225701061802
scalar tiger_cost_network.node[18].content_store 	kappa[18] 	1
scalar tiger_cost_network.node[19].core_layer 	interests[19] 	68764
scalar tiger_cost_network.node[19].core_layer 	data[19] 	68764
scalar tiger_cost_network.node[19].content_store 	p_hit[19] 	0
scalar tiger_cost_network.node[19].content_store 	hits[19] 	0
scalar tiger_cost_network.node[19].content_store 	misses[19] 	68764
scalar tiger_cost_network.node[19].content_store 	decision_yes[19] 	0
scalar tiger_cost_network.node[19].content_store 	decision_no[19] 	68764
scalar tiger_cost_network.node[19].content_store 	decision_ratio[19] 	0
scalar tiger_cost_network.node[19].content_store 	correction_factor[19] 	0.0027225701061802
scalar tiger_cost_network.node[19].content_store 	kappa[19] 	1
scalar tiger_cost_network.node[20].core_layer 	interests[20] 	0
scalar tiger_cost_network.node[20].core_layer 	data[20] 	0
scalar tiger_cost_network.node[20].content_store 	p_hit[20] 	-nan
scalar tiger_cost_network.node[20].content_store 	hits[20] 	0
scalar tiger_cost_network.node[20].content_store 	misses[20] 	0
scalar tiger_cost_network.node[20].content_store 	decision_yes[20] 	0
scalar tiger_cost_network.node[20].content_store 	decision_no[20] 	0
scalar tiger_cost_network.node[20].content_store 	decision_ratio[20] 	0
scalar tiger_cost_network.node[20].content_store 	correction_factor[20] 	0.0027225701061802
scalar tiger_cost_network.node[20].content_store 	kappa[20] 	1
scalar tiger_cost_network.node[21].core_layer 	interests[21] 	204726
scalar tiger_cost_network.node[21].core_layer 	repo_load[21] 	204726
scalar tiger_cost_network.node[21].core_layer 	data[21] 	0
scalar tiger_cost_network.node[21].content_store 	p_hit[21] 	0
scalar tiger_cost_network.node[21].content_store 	hits[21] 	0
scalar tiger_cost_network.node[21].content_store 	misses[21] 	204726
scalar tiger_cost_network.node[21].content_store 	decision_yes[21] 	0
scalar tiger_cost_network.node[21].content_store 	decision_no[21] 	204726
scalar tiger_cost_network.node[21].content_store 	decision_ratio[21] 	0
scalar tiger_cost_network.node[21].content_store 	correction_factor[21] 	0.0027225701061802
scalar tiger_cost_network.node[21].content_store 	kappa[21] 	1
scalar tiger_cost_network.client[4] 	hdistance[4] 	3.1067149608396
scalar tiger_cost_network.client[4] 	downloads[4] 	180284
scalar tiger_cost_network.client[4] 	avg_time[4] 	0.000816367167
scalar tiger_cost_network.client[6] 	hdistance[6] 	3.5298446123136
scalar tiger_cost_network.client[6] 	downloads[6] 	178843
scalar tiger_cost_network.client[6] 	avg_time[6] 	0.001371283677
scalar tiger_cost_network.client[11] 	hdistance[11] 	3.2264846674145
scalar tiger_cost_network.client[11] 	downloads[11] 	180074
scalar tiger_cost_network.client[11] 	avg_time[11] 	0.000558459849
