version 2
run General-11-20140930-19:01:15-22606
attr D fix0.01
attr F nrr
attr R lru
attr a 1
attr configname General
attr csize 1e3
attr ctlg 1e5
attr datetime 20140930-19:01:15
attr experiment General
attr inifile omnetpp.ini
attr iterationvars "$net=tiger_cost, $rep=7, $priceratiovalue=10, $weights=0.333_0.333_0.334, $lambda=100, $a=1, $ctlg=1e5, $F=nrr, $ttl=10, $D=fix0.01, $xi=1, $R=lru, $csize=1e3, $pricebits=0, $window=60, $variance=0.05, $mytime=1800"
attr iterationvars2 "$net=tiger_cost, $rep=7, $priceratiovalue=10, $weights=0.333_0.333_0.334, $lambda=100, $a=1, $ctlg=1e5, $F=nrr, $ttl=10, $D=fix0.01, $xi=1, $R=lru, $csize=1e3, $pricebits=0, $window=60, $variance=0.05, $mytime=1800, $repetition=0"
attr lambda 100
attr measurement "$net=tiger_cost, $rep=7, $priceratiovalue=10, $weights=0.333_0.333_0.334, $lambda=100, $a=1, $ctlg=1e5, $F=nrr, $ttl=10, $D=fix0.01, $xi=1, $R=lru, $csize=1e3, $pricebits=0, $window=60, $variance=0.05, $mytime=1800"
attr mytime 1800
attr net tiger_cost
attr network networks.${net=tiger_cost,dtelecom_cost}_network
attr pricebits 0
attr priceratiovalue 10
attr processid 22606
attr rep 7
attr repetition 0
attr replication #0
attr resultdir results
attr runnumber 11
attr seedset 7
attr ttl 10
attr variance 0.05
attr weights 0.333_0.333_0.334
attr window 60
attr xi 1

scalar . 	a 	1
scalar . 	csize 	1e3
scalar . 	ctlg 	1e5
scalar . 	lambda 	100
scalar . 	mytime 	1800
scalar . 	pricebits 	0
scalar . 	priceratiovalue 	10
scalar . 	rep 	7
scalar . 	ttl 	10
scalar . 	variance 	0.05
scalar . 	window 	60
scalar . 	xi 	1
scalar tiger_cost_network.content_distribution 	repo-0 	21
scalar tiger_cost_network.content_distribution 	repo-1 	4
scalar tiger_cost_network.content_distribution 	repo-2 	12
scalar tiger_cost_network.content_distribution 	client-0 	4
scalar tiger_cost_network.content_distribution 	client-1 	6
scalar tiger_cost_network.content_distribution 	client-2 	11
scalar tiger_cost_network.content_distribution 	repo-0_card 	33105
scalar tiger_cost_network.content_distribution 	repo-0_price 	0
scalar tiger_cost_network.content_distribution 	repo-1_card 	33508
scalar tiger_cost_network.content_distribution 	repo-1_price 	1
scalar tiger_cost_network.content_distribution 	repo-2_card 	33387
scalar tiger_cost_network.content_distribution 	repo-2_price 	10
scalar tiger_cost_network.statistics 	repo_popularity[0] 	0.38081187055787
scalar tiger_cost_network.statistics 	repo_popularity[1] 	0.26942063079195
scalar tiger_cost_network.statistics 	repo_popularity[2] 	0.3497674986502
scalar tiger_cost_network.statistics 	stabilization_time 	36120
scalar tiger_cost_network.statistics 	p_hit 	0.19147490376426
scalar tiger_cost_network.statistics 	interests 	63079
scalar tiger_cost_network.statistics 	data 	38551.136363636
scalar tiger_cost_network.statistics 	hdistance 	2.0798054458195
scalar tiger_cost_network.statistics 	avg_time 	0.000634932002
scalar tiger_cost_network.statistics 	downloads 	539597
scalar tiger_cost_network.statistics 	total_cost 	1037118
scalar tiger_cost_network.statistics 	total_replicas 	100000
scalar tiger_cost_network.statistics 	inner_hit 	0.49243602169767
scalar tiger_cost_network.node[0].core_layer 	interests[0] 	44934
scalar tiger_cost_network.node[0].core_layer 	data[0] 	35994
scalar tiger_cost_network.node[0].core_layer 	repo_int[0] 	273880
scalar tiger_cost_network.node[0].content_store 	p_hit[0] 	0.19895847242623
scalar tiger_cost_network.node[0].content_store 	hits[0] 	8940
scalar tiger_cost_network.node[0].content_store 	misses[0] 	35994
scalar tiger_cost_network.node[0].content_store 	decision_yes[0] 	378
scalar tiger_cost_network.node[0].content_store 	decision_no[0] 	35616
scalar tiger_cost_network.node[0].content_store 	decision_ratio[0] 	0.010501750291715
scalar tiger_cost_network.node[1].core_layer 	interests[1] 	11084
scalar tiger_cost_network.node[1].core_layer 	data[1] 	4938
scalar tiger_cost_network.node[1].content_store 	p_hit[1] 	0.5544929628293
scalar tiger_cost_network.node[1].content_store 	hits[1] 	6146
scalar tiger_cost_network.node[1].content_store 	misses[1] 	4938
scalar tiger_cost_network.node[1].content_store 	decision_yes[1] 	50
scalar tiger_cost_network.node[1].content_store 	decision_no[1] 	4888
scalar tiger_cost_network.node[1].content_store 	decision_ratio[1] 	0.01012555690563
scalar tiger_cost_network.node[2].core_layer 	interests[2] 	70772
scalar tiger_cost_network.node[2].core_layer 	data[2] 	67584
scalar tiger_cost_network.node[2].content_store 	p_hit[2] 	0.04504606341491
scalar tiger_cost_network.node[2].content_store 	hits[2] 	3188
scalar tiger_cost_network.node[2].content_store 	misses[2] 	67584
scalar tiger_cost_network.node[2].content_store 	decision_yes[2] 	665
scalar tiger_cost_network.node[2].content_store 	decision_no[2] 	66919
scalar tiger_cost_network.node[2].content_store 	decision_ratio[2] 	0.0098396070075758
scalar tiger_cost_network.node[3].core_layer 	interests[3] 	72198
scalar tiger_cost_network.node[3].core_layer 	data[3] 	68189
scalar tiger_cost_network.node[3].content_store 	p_hit[3] 	0.055527853957173
scalar tiger_cost_network.node[3].content_store 	hits[3] 	4009
scalar tiger_cost_network.node[3].content_store 	misses[3] 	68189
scalar tiger_cost_network.node[3].content_store 	decision_yes[3] 	669
scalar tiger_cost_network.node[3].content_store 	decision_no[3] 	67520
scalar tiger_cost_network.node[3].content_store 	decision_ratio[3] 	0.0098109665781871
scalar tiger_cost_network.node[4].core_layer 	interests[4] 	250975
scalar tiger_cost_network.node[4].core_layer 	repo_load[4] 	106378
scalar tiger_cost_network.node[4].core_layer 	data[4] 	85257
scalar tiger_cost_network.node[4].content_store 	p_hit[4] 	0.23642593883853
scalar tiger_cost_network.node[4].content_store 	hits[4] 	59337
scalar tiger_cost_network.node[4].content_store 	misses[4] 	191638
scalar tiger_cost_network.node[4].content_store 	decision_yes[4] 	1820
scalar tiger_cost_network.node[4].content_store 	decision_no[4] 	189815
scalar tiger_cost_network.node[4].content_store 	decision_ratio[4] 	0.0094972212800376
scalar tiger_cost_network.node[5].core_layer 	interests[5] 	57341
scalar tiger_cost_network.node[5].core_layer 	data[5] 	40676
scalar tiger_cost_network.node[5].content_store 	p_hit[5] 	0.29062974137179
scalar tiger_cost_network.node[5].content_store 	hits[5] 	16665
scalar tiger_cost_network.node[5].content_store 	misses[5] 	40676
scalar tiger_cost_network.node[5].content_store 	decision_yes[5] 	421
scalar tiger_cost_network.node[5].content_store 	decision_no[5] 	40255
scalar tiger_cost_network.node[5].content_store 	decision_ratio[5] 	0.010350083587373
scalar tiger_cost_network.node[6].core_layer 	interests[6] 	182757
scalar tiger_cost_network.node[6].core_layer 	data[6] 	121317
scalar tiger_cost_network.node[6].content_store 	p_hit[6] 	0.33614581110436
scalar tiger_cost_network.node[6].content_store 	hits[6] 	61433
scalar tiger_cost_network.node[6].content_store 	misses[6] 	121324
scalar tiger_cost_network.node[6].content_store 	decision_yes[6] 	1228
scalar tiger_cost_network.node[6].content_store 	decision_no[6] 	120089
scalar tiger_cost_network.node[6].content_store 	decision_ratio[6] 	0.010122241730343
scalar tiger_cost_network.node[7].core_layer 	interests[7] 	35011
scalar tiger_cost_network.node[7].core_layer 	data[7] 	30482
scalar tiger_cost_network.node[7].content_store 	p_hit[7] 	0.12933078175431
scalar tiger_cost_network.node[7].content_store 	hits[7] 	4528
scalar tiger_cost_network.node[7].content_store 	misses[7] 	30483
scalar tiger_cost_network.node[7].content_store 	decision_yes[7] 	282
scalar tiger_cost_network.node[7].content_store 	decision_no[7] 	30200
scalar tiger_cost_network.node[7].content_store 	decision_ratio[7] 	0.0092513614592218
scalar tiger_cost_network.node[8].core_layer 	interests[8] 	33490
scalar tiger_cost_network.node[8].core_layer 	data[8] 	30220
scalar tiger_cost_network.node[8].content_store 	p_hit[8] 	0.09761122723201
scalar tiger_cost_network.node[8].content_store 	hits[8] 	3269
scalar tiger_cost_network.node[8].content_store 	misses[8] 	30221
scalar tiger_cost_network.node[8].content_store 	decision_yes[8] 	303
scalar tiger_cost_network.node[8].content_store 	decision_no[8] 	29917
scalar tiger_cost_network.node[8].content_store 	decision_ratio[8] 	0.010026472534745
scalar tiger_cost_network.node[9].core_layer 	interests[9] 	27109
scalar tiger_cost_network.node[9].core_layer 	data[9] 	25261
scalar tiger_cost_network.node[9].content_store 	p_hit[9] 	0.068169242686931
scalar tiger_cost_network.node[9].content_store 	hits[9] 	1848
scalar tiger_cost_network.node[9].content_store 	misses[9] 	25261
scalar tiger_cost_network.node[9].content_store 	decision_yes[9] 	227
scalar tiger_cost_network.node[9].content_store 	decision_no[9] 	25034
scalar tiger_cost_network.node[9].content_store 	decision_ratio[9] 	0.0089861842365702
scalar tiger_cost_network.node[10].core_layer 	interests[10] 	33745
scalar tiger_cost_network.node[10].core_layer 	data[10] 	29683
scalar tiger_cost_network.node[10].content_store 	p_hit[10] 	0.12037338865017
scalar tiger_cost_network.node[10].content_store 	hits[10] 	4062
scalar tiger_cost_network.node[10].content_store 	misses[10] 	29683
scalar tiger_cost_network.node[10].content_store 	decision_yes[10] 	285
scalar tiger_cost_network.node[10].content_store 	decision_no[10] 	29398
scalar tiger_cost_network.node[10].content_store 	decision_ratio[10] 	0.0096014553784995
scalar tiger_cost_network.node[11].core_layer 	interests[11] 	180420
scalar tiger_cost_network.node[11].core_layer 	data[11] 	119869
scalar tiger_cost_network.node[11].content_store 	p_hit[11] 	0.33558918080035
scalar tiger_cost_network.node[11].content_store 	hits[11] 	60547
scalar tiger_cost_network.node[11].content_store 	misses[11] 	119873
scalar tiger_cost_network.node[11].content_store 	decision_yes[11] 	1163
scalar tiger_cost_network.node[11].content_store 	decision_no[11] 	118706
scalar tiger_cost_network.node[11].content_store 	decision_ratio[11] 	0.0097022582986427
scalar tiger_cost_network.node[12].core_layer 	interests[12] 	133800
scalar tiger_cost_network.node[12].core_layer 	repo_load[12] 	93074
scalar tiger_cost_network.node[12].core_layer 	data[12] 	35260
scalar tiger_cost_network.node[12].content_store 	p_hit[12] 	0.04085201793722
scalar tiger_cost_network.node[12].content_store 	hits[12] 	5466
scalar tiger_cost_network.node[12].content_store 	misses[12] 	128334
scalar tiger_cost_network.node[12].content_store 	decision_yes[12] 	1252
scalar tiger_cost_network.node[12].content_store 	decision_no[12] 	127082
scalar tiger_cost_network.node[12].content_store 	decision_ratio[12] 	0.0097557934763975
scalar tiger_cost_network.node[13].core_layer 	interests[13] 	0
scalar tiger_cost_network.node[13].core_layer 	data[13] 	0
scalar tiger_cost_network.node[13].content_store 	p_hit[13] 	-nan
scalar tiger_cost_network.node[13].content_store 	hits[13] 	0
scalar tiger_cost_network.node[13].content_store 	misses[13] 	0
scalar tiger_cost_network.node[13].content_store 	decision_yes[13] 	0
scalar tiger_cost_network.node[13].content_store 	decision_no[13] 	0
scalar tiger_cost_network.node[13].content_store 	decision_ratio[13] 	0
scalar tiger_cost_network.node[14].core_layer 	interests[14] 	0
scalar tiger_cost_network.node[14].core_layer 	data[14] 	0
scalar tiger_cost_network.node[14].content_store 	p_hit[14] 	-nan
scalar tiger_cost_network.node[14].content_store 	hits[14] 	0
scalar tiger_cost_network.node[14].content_store 	misses[14] 	0
scalar tiger_cost_network.node[14].content_store 	decision_yes[14] 	0
scalar tiger_cost_network.node[14].content_store 	decision_no[14] 	0
scalar tiger_cost_network.node[14].content_store 	decision_ratio[14] 	0
scalar tiger_cost_network.node[15].core_layer 	interests[15] 	0
scalar tiger_cost_network.node[15].core_layer 	data[15] 	0
scalar tiger_cost_network.node[15].content_store 	p_hit[15] 	-nan
scalar tiger_cost_network.node[15].content_store 	hits[15] 	0
scalar tiger_cost_network.node[15].content_store 	misses[15] 	0
scalar tiger_cost_network.node[15].content_store 	decision_yes[15] 	0
scalar tiger_cost_network.node[15].content_store 	decision_no[15] 	0
scalar tiger_cost_network.node[15].content_store 	decision_ratio[15] 	0
scalar tiger_cost_network.node[16].core_layer 	interests[16] 	0
scalar tiger_cost_network.node[16].core_layer 	data[16] 	0
scalar tiger_cost_network.node[16].content_store 	p_hit[16] 	-nan
scalar tiger_cost_network.node[16].content_store 	hits[16] 	0
scalar tiger_cost_network.node[16].content_store 	misses[16] 	0
scalar tiger_cost_network.node[16].content_store 	decision_yes[16] 	0
scalar tiger_cost_network.node[16].content_store 	decision_no[16] 	0
scalar tiger_cost_network.node[16].content_store 	decision_ratio[16] 	0
scalar tiger_cost_network.node[17].core_layer 	interests[17] 	80020
scalar tiger_cost_network.node[17].core_layer 	data[17] 	65673
scalar tiger_cost_network.node[17].content_store 	p_hit[17] 	0.17929267683079
scalar tiger_cost_network.node[17].content_store 	hits[17] 	14347
scalar tiger_cost_network.node[17].content_store 	misses[17] 	65673
scalar tiger_cost_network.node[17].content_store 	decision_yes[17] 	660
scalar tiger_cost_network.node[17].content_store 	decision_no[17] 	65013
scalar tiger_cost_network.node[17].content_store 	decision_ratio[17] 	0.010049792152026
scalar tiger_cost_network.node[18].core_layer 	interests[18] 	69439
scalar tiger_cost_network.node[18].core_layer 	data[18] 	62109
scalar tiger_cost_network.node[18].content_store 	p_hit[18] 	0.10556027592563
scalar tiger_cost_network.node[18].content_store 	hits[18] 	7330
scalar tiger_cost_network.node[18].content_store 	misses[18] 	62109
scalar tiger_cost_network.node[18].content_store 	decision_yes[18] 	595
scalar tiger_cost_network.node[18].content_store 	decision_no[18] 	61514
scalar tiger_cost_network.node[18].content_store 	decision_ratio[18] 	0.0095799320549357
scalar tiger_cost_network.node[19].core_layer 	interests[19] 	28514
scalar tiger_cost_network.node[19].core_layer 	data[19] 	25613
scalar tiger_cost_network.node[19].content_store 	p_hit[19] 	0.10173949638774
scalar tiger_cost_network.node[19].content_store 	hits[19] 	2901
scalar tiger_cost_network.node[19].content_store 	misses[19] 	25613
scalar tiger_cost_network.node[19].content_store 	decision_yes[19] 	257
scalar tiger_cost_network.node[19].content_store 	decision_no[19] 	25356
scalar tiger_cost_network.node[19].content_store 	decision_ratio[19] 	0.010033967126069
scalar tiger_cost_network.node[20].core_layer 	interests[20] 	0
scalar tiger_cost_network.node[20].core_layer 	data[20] 	0
scalar tiger_cost_network.node[20].content_store 	p_hit[20] 	-nan
scalar tiger_cost_network.node[20].content_store 	hits[20] 	0
scalar tiger_cost_network.node[20].content_store 	misses[20] 	0
scalar tiger_cost_network.node[20].content_store 	decision_yes[20] 	0
scalar tiger_cost_network.node[20].content_store 	decision_no[20] 	0
scalar tiger_cost_network.node[20].content_store 	decision_ratio[20] 	0
scalar tiger_cost_network.node[21].core_layer 	interests[21] 	76129
scalar tiger_cost_network.node[21].core_layer 	repo_load[21] 	74428
scalar tiger_cost_network.node[21].core_layer 	data[21] 	0
scalar tiger_cost_network.node[21].content_store 	p_hit[21] 	0.022343653535446
scalar tiger_cost_network.node[21].content_store 	hits[21] 	1701
scalar tiger_cost_network.node[21].content_store 	misses[21] 	74428
scalar tiger_cost_network.node[21].content_store 	decision_yes[21] 	769
scalar tiger_cost_network.node[21].content_store 	decision_no[21] 	73659
scalar tiger_cost_network.node[21].content_store 	decision_ratio[21] 	0.0103321330682
scalar tiger_cost_network.client[4] 	hdistance[4] 	1.864085525696
scalar tiger_cost_network.client[4] 	downloads[4] 	180437
scalar tiger_cost_network.client[4] 	avg_time[4] 	0.000600363577
scalar tiger_cost_network.client[6] 	hdistance[6] 	2.2530044452386
scalar tiger_cost_network.client[6] 	downloads[6] 	179068
scalar tiger_cost_network.client[6] 	avg_time[6] 	0.000851225409
scalar tiger_cost_network.client[11] 	hdistance[11] 	2.1223263665238
scalar tiger_cost_network.client[11] 	downloads[11] 	180092
scalar tiger_cost_network.client[11] 	avg_time[11] 	0.000453207021
