version 2
run General-5-20140930-18:23:32-19926
attr D fix0.01
attr F nrr
attr R lru
attr a 1
attr configname General
attr csize 1e3
attr ctlg 1e5
attr datetime 20140930-18:23:32
attr experiment General
attr inifile omnetpp.ini
attr iterationvars "$net=tiger_cost, $rep=3, $priceratiovalue=10, $weights=0.333_0.333_0.334, $lambda=100, $a=1, $ctlg=1e5, $F=nrr, $ttl=10, $D=fix0.01, $xi=1, $R=lru, $csize=1e3, $pricebits=0, $window=60, $variance=0.05, $mytime=1800"
attr iterationvars2 "$net=tiger_cost, $rep=3, $priceratiovalue=10, $weights=0.333_0.333_0.334, $lambda=100, $a=1, $ctlg=1e5, $F=nrr, $ttl=10, $D=fix0.01, $xi=1, $R=lru, $csize=1e3, $pricebits=0, $window=60, $variance=0.05, $mytime=1800, $repetition=0"
attr lambda 100
attr measurement "$net=tiger_cost, $rep=3, $priceratiovalue=10, $weights=0.333_0.333_0.334, $lambda=100, $a=1, $ctlg=1e5, $F=nrr, $ttl=10, $D=fix0.01, $xi=1, $R=lru, $csize=1e3, $pricebits=0, $window=60, $variance=0.05, $mytime=1800"
attr mytime 1800
attr net tiger_cost
attr network networks.${net=tiger_cost,dtelecom_cost}_network
attr pricebits 0
attr priceratiovalue 10
attr processid 19926
attr rep 3
attr repetition 0
attr replication #0
attr resultdir results
attr runnumber 5
attr seedset 3
attr ttl 10
attr variance 0.05
attr weights 0.333_0.333_0.334
attr window 60
attr xi 1

scalar . 	a 	1
scalar . 	csize 	1e3
scalar . 	ctlg 	1e5
scalar . 	lambda 	100
scalar . 	mytime 	1800
scalar . 	pricebits 	0
scalar . 	priceratiovalue 	10
scalar . 	rep 	3
scalar . 	ttl 	10
scalar . 	variance 	0.05
scalar . 	window 	60
scalar . 	xi 	1
scalar tiger_cost_network.content_distribution 	repo-0 	9
scalar tiger_cost_network.content_distribution 	repo-1 	4
scalar tiger_cost_network.content_distribution 	repo-2 	15
scalar tiger_cost_network.content_distribution 	client-0 	17
scalar tiger_cost_network.content_distribution 	client-1 	16
scalar tiger_cost_network.content_distribution 	client-2 	8
scalar tiger_cost_network.content_distribution 	repo-0_card 	33499
scalar tiger_cost_network.content_distribution 	repo-0_price 	0
scalar tiger_cost_network.content_distribution 	repo-1_card 	33168
scalar tiger_cost_network.content_distribution 	repo-1_price 	1
scalar tiger_cost_network.content_distribution 	repo-2_card 	33333
scalar tiger_cost_network.content_distribution 	repo-2_price 	10
scalar tiger_cost_network.statistics 	repo_popularity[0] 	0.45192118428998
scalar tiger_cost_network.statistics 	repo_popularity[1] 	0.26082990079581
scalar tiger_cost_network.statistics 	repo_popularity[2] 	0.28724891491422
scalar tiger_cost_network.statistics 	stabilization_time 	36060
scalar tiger_cost_network.statistics 	p_hit 	0.19162021839047
scalar tiger_cost_network.statistics 	interests 	61187.318181818
scalar tiger_cost_network.statistics 	data 	36687.818181818
scalar tiger_cost_network.statistics 	hdistance 	2.0194470308641
scalar tiger_cost_network.statistics 	avg_time 	0.000656227969
scalar tiger_cost_network.statistics 	downloads 	538979
scalar tiger_cost_network.statistics 	total_cost 	977614
scalar tiger_cost_network.statistics 	total_replicas 	100000
scalar tiger_cost_network.statistics 	inner_hit 	0.4785807981387
scalar tiger_cost_network.node[0].core_layer 	interests[0] 	0
scalar tiger_cost_network.node[0].core_layer 	data[0] 	0
scalar tiger_cost_network.node[0].core_layer 	repo_int[0] 	281034
scalar tiger_cost_network.node[0].content_store 	p_hit[0] 	-nan
scalar tiger_cost_network.node[0].content_store 	hits[0] 	0
scalar tiger_cost_network.node[0].content_store 	misses[0] 	0
scalar tiger_cost_network.node[0].content_store 	decision_yes[0] 	0
scalar tiger_cost_network.node[0].content_store 	decision_no[0] 	0
scalar tiger_cost_network.node[0].content_store 	decision_ratio[0] 	0
scalar tiger_cost_network.node[1].core_layer 	interests[1] 	71269
scalar tiger_cost_network.node[1].core_layer 	data[1] 	67208
scalar tiger_cost_network.node[1].content_store 	p_hit[1] 	0.056981296215746
scalar tiger_cost_network.node[1].content_store 	hits[1] 	4061
scalar tiger_cost_network.node[1].content_store 	misses[1] 	67208
scalar tiger_cost_network.node[1].content_store 	decision_yes[1] 	734
scalar tiger_cost_network.node[1].content_store 	decision_no[1] 	66474
scalar tiger_cost_network.node[1].content_store 	decision_ratio[1] 	0.010921318890608
scalar tiger_cost_network.node[2].core_layer 	interests[2] 	68121
scalar tiger_cost_network.node[2].core_layer 	data[2] 	64712
scalar tiger_cost_network.node[2].content_store 	p_hit[2] 	0.05004330529499
scalar tiger_cost_network.node[2].content_store 	hits[2] 	3409
scalar tiger_cost_network.node[2].content_store 	misses[2] 	64712
scalar tiger_cost_network.node[2].content_store 	decision_yes[2] 	650
scalar tiger_cost_network.node[2].content_store 	decision_no[2] 	64062
scalar tiger_cost_network.node[2].content_store 	decision_ratio[2] 	0.010044504883175
scalar tiger_cost_network.node[3].core_layer 	interests[3] 	67970
scalar tiger_cost_network.node[3].core_layer 	data[3] 	63665
scalar tiger_cost_network.node[3].content_store 	p_hit[3] 	0.063336766220391
scalar tiger_cost_network.node[3].content_store 	hits[3] 	4305
scalar tiger_cost_network.node[3].content_store 	misses[3] 	63665
scalar tiger_cost_network.node[3].content_store 	decision_yes[3] 	628
scalar tiger_cost_network.node[3].content_store 	decision_no[3] 	63037
scalar tiger_cost_network.node[3].content_store 	decision_ratio[3] 	0.0098641325689154
scalar tiger_cost_network.node[4].core_layer 	interests[4] 	111597
scalar tiger_cost_network.node[4].core_layer 	repo_load[4] 	98344
scalar tiger_cost_network.node[4].core_layer 	data[4] 	3258
scalar tiger_cost_network.node[4].content_store 	p_hit[4] 	0.089563339516295
scalar tiger_cost_network.node[4].content_store 	hits[4] 	9995
scalar tiger_cost_network.node[4].content_store 	misses[4] 	101602
scalar tiger_cost_network.node[4].content_store 	decision_yes[4] 	1017
scalar tiger_cost_network.node[4].content_store 	decision_no[4] 	100585
scalar tiger_cost_network.node[4].content_store 	decision_ratio[4] 	0.01000964547942
scalar tiger_cost_network.node[5].core_layer 	interests[5] 	0
scalar tiger_cost_network.node[5].core_layer 	data[5] 	0
scalar tiger_cost_network.node[5].content_store 	p_hit[5] 	-nan
scalar tiger_cost_network.node[5].content_store 	hits[5] 	0
scalar tiger_cost_network.node[5].content_store 	misses[5] 	0
scalar tiger_cost_network.node[5].content_store 	decision_yes[5] 	0
scalar tiger_cost_network.node[5].content_store 	decision_no[5] 	0
scalar tiger_cost_network.node[5].content_store 	decision_ratio[5] 	0
scalar tiger_cost_network.node[6].core_layer 	interests[6] 	93064
scalar tiger_cost_network.node[6].core_layer 	data[6] 	74787
scalar tiger_cost_network.node[6].content_store 	p_hit[6] 	0.19639173042208
scalar tiger_cost_network.node[6].content_store 	hits[6] 	18277
scalar tiger_cost_network.node[6].content_store 	misses[6] 	74787
scalar tiger_cost_network.node[6].content_store 	decision_yes[6] 	765
scalar tiger_cost_network.node[6].content_store 	decision_no[6] 	74022
scalar tiger_cost_network.node[6].content_store 	decision_ratio[6] 	0.01022905050343
scalar tiger_cost_network.node[7].core_layer 	interests[7] 	87563
scalar tiger_cost_network.node[7].core_layer 	data[7] 	74570
scalar tiger_cost_network.node[7].content_store 	p_hit[7] 	0.14838459166543
scalar tiger_cost_network.node[7].content_store 	hits[7] 	12993
scalar tiger_cost_network.node[7].content_store 	misses[7] 	74570
scalar tiger_cost_network.node[7].content_store 	decision_yes[7] 	722
scalar tiger_cost_network.node[7].content_store 	decision_no[7] 	73848
scalar tiger_cost_network.node[7].content_store 	decision_ratio[7] 	0.0096821778194985
scalar tiger_cost_network.node[8].core_layer 	interests[8] 	245609
scalar tiger_cost_network.node[8].core_layer 	data[8] 	187106
scalar tiger_cost_network.node[8].content_store 	p_hit[8] 	0.23817123965327
scalar tiger_cost_network.node[8].content_store 	hits[8] 	58497
scalar tiger_cost_network.node[8].content_store 	misses[8] 	187112
scalar tiger_cost_network.node[8].content_store 	decision_yes[8] 	1804
scalar tiger_cost_network.node[8].content_store 	decision_no[8] 	185302
scalar tiger_cost_network.node[8].content_store 	decision_ratio[8] 	0.0096415935352153
scalar tiger_cost_network.node[9].core_layer 	interests[9] 	100403
scalar tiger_cost_network.node[9].core_layer 	repo_load[9] 	94763
scalar tiger_cost_network.node[9].core_layer 	data[9] 	0
scalar tiger_cost_network.node[9].content_store 	p_hit[9] 	0.05617362031015
scalar tiger_cost_network.node[9].content_store 	hits[9] 	5640
scalar tiger_cost_network.node[9].content_store 	misses[9] 	94763
scalar tiger_cost_network.node[9].content_store 	decision_yes[9] 	965
scalar tiger_cost_network.node[9].content_store 	decision_no[9] 	93798
scalar tiger_cost_network.node[9].content_store 	decision_ratio[9] 	0.010183299389002
scalar tiger_cost_network.node[10].core_layer 	interests[10] 	0
scalar tiger_cost_network.node[10].core_layer 	data[10] 	0
scalar tiger_cost_network.node[10].content_store 	p_hit[10] 	-nan
scalar tiger_cost_network.node[10].content_store 	hits[10] 	0
scalar tiger_cost_network.node[10].content_store 	misses[10] 	0
scalar tiger_cost_network.node[10].content_store 	decision_yes[10] 	0
scalar tiger_cost_network.node[10].content_store 	decision_no[10] 	0
scalar tiger_cost_network.node[10].content_store 	decision_ratio[10] 	0
scalar tiger_cost_network.node[11].core_layer 	interests[11] 	0
scalar tiger_cost_network.node[11].core_layer 	data[11] 	0
scalar tiger_cost_network.node[11].content_store 	p_hit[11] 	-nan
scalar tiger_cost_network.node[11].content_store 	hits[11] 	0
scalar tiger_cost_network.node[11].content_store 	misses[11] 	0
scalar tiger_cost_network.node[11].content_store 	decision_yes[11] 	0
scalar tiger_cost_network.node[11].content_store 	decision_no[11] 	0
scalar tiger_cost_network.node[11].content_store 	decision_ratio[11] 	0
scalar tiger_cost_network.node[12].core_layer 	interests[12] 	0
scalar tiger_cost_network.node[12].core_layer 	data[12] 	0
scalar tiger_cost_network.node[12].content_store 	p_hit[12] 	-nan
scalar tiger_cost_network.node[12].content_store 	hits[12] 	0
scalar tiger_cost_network.node[12].content_store 	misses[12] 	0
scalar tiger_cost_network.node[12].content_store 	decision_yes[12] 	0
scalar tiger_cost_network.node[12].content_store 	decision_no[12] 	0
scalar tiger_cost_network.node[12].content_store 	decision_ratio[12] 	0
scalar tiger_cost_network.node[13].core_layer 	interests[13] 	0
scalar tiger_cost_network.node[13].core_layer 	data[13] 	0
scalar tiger_cost_network.node[13].content_store 	p_hit[13] 	-nan
scalar tiger_cost_network.node[13].content_store 	hits[13] 	0
scalar tiger_cost_network.node[13].content_store 	misses[13] 	0
scalar tiger_cost_network.node[13].content_store 	decision_yes[13] 	0
scalar tiger_cost_network.node[13].content_store 	decision_no[13] 	0
scalar tiger_cost_network.node[13].content_store 	decision_ratio[13] 	0
scalar tiger_cost_network.node[14].core_layer 	interests[14] 	0
scalar tiger_cost_network.node[14].core_layer 	data[14] 	0
scalar tiger_cost_network.node[14].content_store 	p_hit[14] 	-nan
scalar tiger_cost_network.node[14].content_store 	hits[14] 	0
scalar tiger_cost_network.node[14].content_store 	misses[14] 	0
scalar tiger_cost_network.node[14].content_store 	decision_yes[14] 	0
scalar tiger_cost_network.node[14].content_store 	decision_no[14] 	0
scalar tiger_cost_network.node[14].content_store 	decision_ratio[14] 	0
scalar tiger_cost_network.node[15].core_layer 	interests[15] 	93982
scalar tiger_cost_network.node[15].core_layer 	repo_load[15] 	87927
scalar tiger_cost_network.node[15].core_layer 	data[15] 	0
scalar tiger_cost_network.node[15].content_store 	p_hit[15] 	0.064427230746313
scalar tiger_cost_network.node[15].content_store 	hits[15] 	6055
scalar tiger_cost_network.node[15].content_store 	misses[15] 	87927
scalar tiger_cost_network.node[15].content_store 	decision_yes[15] 	963
scalar tiger_cost_network.node[15].content_store 	decision_no[15] 	86964
scalar tiger_cost_network.node[15].content_store 	decision_ratio[15] 	0.010952267221673
scalar tiger_cost_network.node[16].core_layer 	interests[16] 	218908
scalar tiger_cost_network.node[16].core_layer 	data[16] 	152210
scalar tiger_cost_network.node[16].content_store 	p_hit[16] 	0.30468050505235
scalar tiger_cost_network.node[16].content_store 	hits[16] 	66697
scalar tiger_cost_network.node[16].content_store 	misses[16] 	152211
scalar tiger_cost_network.node[16].content_store 	decision_yes[16] 	1550
scalar tiger_cost_network.node[16].content_store 	decision_no[16] 	150660
scalar tiger_cost_network.node[16].content_store 	decision_ratio[16] 	0.010183299389002
scalar tiger_cost_network.node[17].core_layer 	interests[17] 	187635
scalar tiger_cost_network.node[17].core_layer 	data[17] 	119616
scalar tiger_cost_network.node[17].content_store 	p_hit[17] 	0.36248567697924
scalar tiger_cost_network.node[17].content_store 	hits[17] 	68015
scalar tiger_cost_network.node[17].content_store 	misses[17] 	119620
scalar tiger_cost_network.node[17].content_store 	decision_yes[17] 	1207
scalar tiger_cost_network.node[17].content_store 	decision_no[17] 	118409
scalar tiger_cost_network.node[17].content_store 	decision_ratio[17] 	0.010090623327983
scalar tiger_cost_network.node[18].core_layer 	interests[18] 	0
scalar tiger_cost_network.node[18].core_layer 	data[18] 	0
scalar tiger_cost_network.node[18].content_store 	p_hit[18] 	-nan
scalar tiger_cost_network.node[18].content_store 	hits[18] 	0
scalar tiger_cost_network.node[18].content_store 	misses[18] 	0
scalar tiger_cost_network.node[18].content_store 	decision_yes[18] 	0
scalar tiger_cost_network.node[18].content_store 	decision_no[18] 	0
scalar tiger_cost_network.node[18].content_store 	decision_ratio[18] 	0
scalar tiger_cost_network.node[19].core_layer 	interests[19] 	0
scalar tiger_cost_network.node[19].core_layer 	data[19] 	0
scalar tiger_cost_network.node[19].content_store 	p_hit[19] 	-nan
scalar tiger_cost_network.node[19].content_store 	hits[19] 	0
scalar tiger_cost_network.node[19].content_store 	misses[19] 	0
scalar tiger_cost_network.node[19].content_store 	decision_yes[19] 	0
scalar tiger_cost_network.node[19].content_store 	decision_no[19] 	0
scalar tiger_cost_network.node[19].content_store 	decision_ratio[19] 	0
scalar tiger_cost_network.node[20].core_layer 	interests[20] 	0
scalar tiger_cost_network.node[20].core_layer 	data[20] 	0
scalar tiger_cost_network.node[20].content_store 	p_hit[20] 	-nan
scalar tiger_cost_network.node[20].content_store 	hits[20] 	0
scalar tiger_cost_network.node[20].content_store 	misses[20] 	0
scalar tiger_cost_network.node[20].content_store 	decision_yes[20] 	0
scalar tiger_cost_network.node[20].content_store 	decision_no[20] 	0
scalar tiger_cost_network.node[20].content_store 	decision_ratio[20] 	0
scalar tiger_cost_network.node[21].core_layer 	interests[21] 	0
scalar tiger_cost_network.node[21].core_layer 	data[21] 	0
scalar tiger_cost_network.node[21].content_store 	p_hit[21] 	-nan
scalar tiger_cost_network.node[21].content_store 	hits[21] 	0
scalar tiger_cost_network.node[21].content_store 	misses[21] 	0
scalar tiger_cost_network.node[21].content_store 	decision_yes[21] 	0
scalar tiger_cost_network.node[21].content_store 	decision_no[21] 	0
scalar tiger_cost_network.node[21].content_store 	decision_ratio[21] 	0
scalar tiger_cost_network.client[8] 	hdistance[8] 	2.3384551842695
scalar tiger_cost_network.client[8] 	downloads[8] 	179167
scalar tiger_cost_network.client[8] 	avg_time[8] 	0.000906857961
scalar tiger_cost_network.client[16] 	hdistance[16] 	1.7704573973105
scalar tiger_cost_network.client[16] 	downloads[16] 	180106
scalar tiger_cost_network.client[16] 	avg_time[16] 	0.000522766102
scalar tiger_cost_network.client[17] 	hdistance[17] 	1.9494285110124
scalar tiger_cost_network.client[17] 	downloads[17] 	179706
scalar tiger_cost_network.client[17] 	avg_time[17] 	0.000539059846
