version 2
run General-5-20140930-18:39:44-22993
attr D fix0.01
attr F nrr
attr R lru
attr a 1
attr configname General
attr csize 1e3
attr ctlg 1e5
attr datetime 20140930-18:39:44
attr experiment General
attr inifile omnetpp.ini
attr iterationvars "$net=tiger_cost, $rep=2, $priceratiovalue=10, $weights=0.333_0.333_0.334, $lambda=100, $a=1, $ctlg=1e5, $F=nrr, $ttl=10, $D=fix0.01, $xi=1, $R=lru, $csize=1e3, $pricebits=0, $window=60, $variance=0.05, $mytime=1800"
attr iterationvars2 "$net=tiger_cost, $rep=2, $priceratiovalue=10, $weights=0.333_0.333_0.334, $lambda=100, $a=1, $ctlg=1e5, $F=nrr, $ttl=10, $D=fix0.01, $xi=1, $R=lru, $csize=1e3, $pricebits=0, $window=60, $variance=0.05, $mytime=1800, $repetition=0"
attr lambda 100
attr measurement "$net=tiger_cost, $rep=2, $priceratiovalue=10, $weights=0.333_0.333_0.334, $lambda=100, $a=1, $ctlg=1e5, $F=nrr, $ttl=10, $D=fix0.01, $xi=1, $R=lru, $csize=1e3, $pricebits=0, $window=60, $variance=0.05, $mytime=1800"
attr mytime 1800
attr net tiger_cost
attr network networks.${net=tiger_cost,dtelecom_cost}_network
attr pricebits 0
attr priceratiovalue 10
attr processid 22993
attr rep 2
attr repetition 0
attr replication #0
attr resultdir results
attr runnumber 5
attr seedset 2
attr ttl 10
attr variance 0.05
attr weights 0.333_0.333_0.334
attr window 60
attr xi 1

scalar . 	a 	1
scalar . 	csize 	1e3
scalar . 	ctlg 	1e5
scalar . 	lambda 	100
scalar . 	mytime 	1800
scalar . 	pricebits 	0
scalar . 	priceratiovalue 	10
scalar . 	rep 	2
scalar . 	ttl 	10
scalar . 	variance 	0.05
scalar . 	window 	60
scalar . 	xi 	1
scalar tiger_cost_network.content_distribution 	repo-0 	15
scalar tiger_cost_network.content_distribution 	repo-1 	4
scalar tiger_cost_network.content_distribution 	repo-2 	3
scalar tiger_cost_network.content_distribution 	client-0 	7
scalar tiger_cost_network.content_distribution 	client-1 	14
scalar tiger_cost_network.content_distribution 	client-2 	8
scalar tiger_cost_network.content_distribution 	repo-0_card 	33328
scalar tiger_cost_network.content_distribution 	repo-0_price 	1
scalar tiger_cost_network.content_distribution 	repo-1_card 	33051
scalar tiger_cost_network.content_distribution 	repo-1_price 	10
scalar tiger_cost_network.content_distribution 	repo-2_card 	33621
scalar tiger_cost_network.content_distribution 	repo-2_price 	0
scalar tiger_cost_network.statistics 	repo_popularity[0] 	0.40756645377989
scalar tiger_cost_network.statistics 	repo_popularity[1] 	0.31264158041994
scalar tiger_cost_network.statistics 	repo_popularity[2] 	0.27979196580019
scalar tiger_cost_network.statistics 	stabilization_time 	36060
scalar tiger_cost_network.statistics 	p_hit 	0.17391057714585
scalar tiger_cost_network.statistics 	interests 	66508.318181818
scalar tiger_cost_network.statistics 	data 	41948.409090909
scalar tiger_cost_network.statistics 	hdistance 	2.2373346978757
scalar tiger_cost_network.statistics 	avg_time 	0.000835399105
scalar tiger_cost_network.statistics 	downloads 	540309
scalar tiger_cost_network.statistics 	total_cost 	979584
scalar tiger_cost_network.statistics 	total_replicas 	100000
scalar tiger_cost_network.statistics 	inner_hit 	0.47096198656695
scalar tiger_cost_network.node[0].core_layer 	interests[0] 	0
scalar tiger_cost_network.node[0].core_layer 	data[0] 	0
scalar tiger_cost_network.node[0].core_layer 	repo_int[0] 	285844
scalar tiger_cost_network.node[0].content_store 	p_hit[0] 	-nan
scalar tiger_cost_network.node[0].content_store 	hits[0] 	0
scalar tiger_cost_network.node[0].content_store 	misses[0] 	0
scalar tiger_cost_network.node[0].content_store 	decision_yes[0] 	0
scalar tiger_cost_network.node[0].content_store 	decision_no[0] 	0
scalar tiger_cost_network.node[0].content_store 	decision_ratio[0] 	0
scalar tiger_cost_network.node[1].core_layer 	interests[1] 	147444
scalar tiger_cost_network.node[1].core_layer 	data[1] 	137551
scalar tiger_cost_network.node[1].content_store 	p_hit[1] 	0.06709666042701
scalar tiger_cost_network.node[1].content_store 	hits[1] 	9893
scalar tiger_cost_network.node[1].content_store 	misses[1] 	137551
scalar tiger_cost_network.node[1].content_store 	decision_yes[1] 	1440
scalar tiger_cost_network.node[1].content_store 	decision_no[1] 	136111
scalar tiger_cost_network.node[1].content_store 	decision_ratio[1] 	0.010468844283211
scalar tiger_cost_network.node[2].core_layer 	interests[2] 	140578
scalar tiger_cost_network.node[2].core_layer 	data[2] 	133554
scalar tiger_cost_network.node[2].content_store 	p_hit[2] 	0.049965143905874
scalar tiger_cost_network.node[2].content_store 	hits[2] 	7024
scalar tiger_cost_network.node[2].content_store 	misses[2] 	133554
scalar tiger_cost_network.node[2].content_store 	decision_yes[2] 	1321
scalar tiger_cost_network.node[2].content_store 	decision_no[2] 	132233
scalar tiger_cost_network.node[2].content_store 	decision_ratio[2] 	0.0098911301795528
scalar tiger_cost_network.node[3].core_layer 	interests[3] 	209625
scalar tiger_cost_network.node[3].core_layer 	repo_load[3] 	102031
scalar tiger_cost_network.node[3].core_layer 	data[3] 	99054
scalar tiger_cost_network.node[3].content_store 	p_hit[3] 	0.040739415623137
scalar tiger_cost_network.node[3].content_store 	hits[3] 	8540
scalar tiger_cost_network.node[3].content_store 	misses[3] 	201085
scalar tiger_cost_network.node[3].content_store 	decision_yes[3] 	2030
scalar tiger_cost_network.node[3].content_store 	decision_no[3] 	199055
scalar tiger_cost_network.node[3].content_store 	decision_ratio[3] 	0.010095233359027
scalar tiger_cost_network.node[4].core_layer 	interests[4] 	93492
scalar tiger_cost_network.node[4].core_layer 	repo_load[4] 	88419
scalar tiger_cost_network.node[4].core_layer 	data[4] 	0
scalar tiger_cost_network.node[4].content_store 	p_hit[4] 	0.054261327172378
scalar tiger_cost_network.node[4].content_store 	hits[4] 	5073
scalar tiger_cost_network.node[4].content_store 	misses[4] 	88419
scalar tiger_cost_network.node[4].content_store 	decision_yes[4] 	945
scalar tiger_cost_network.node[4].content_store 	decision_no[4] 	87474
scalar tiger_cost_network.node[4].content_store 	decision_ratio[4] 	0.010687748108438
scalar tiger_cost_network.node[5].core_layer 	interests[5] 	33083
scalar tiger_cost_network.node[5].core_layer 	data[5] 	30114
scalar tiger_cost_network.node[5].content_store 	p_hit[5] 	0.089743977269292
scalar tiger_cost_network.node[5].content_store 	hits[5] 	2969
scalar tiger_cost_network.node[5].content_store 	misses[5] 	30114
scalar tiger_cost_network.node[5].content_store 	decision_yes[5] 	268
scalar tiger_cost_network.node[5].content_store 	decision_no[5] 	29846
scalar tiger_cost_network.node[5].content_store 	decision_ratio[5] 	0.0088995151756658
scalar tiger_cost_network.node[6].core_layer 	interests[6] 	82880
scalar tiger_cost_network.node[6].core_layer 	data[6] 	71554
scalar tiger_cost_network.node[6].content_store 	p_hit[6] 	0.13665540540541
scalar tiger_cost_network.node[6].content_store 	hits[6] 	11326
scalar tiger_cost_network.node[6].content_store 	misses[6] 	71554
scalar tiger_cost_network.node[6].content_store 	decision_yes[6] 	705
scalar tiger_cost_network.node[6].content_store 	decision_no[6] 	70849
scalar tiger_cost_network.node[6].content_store 	decision_ratio[6] 	0.009852698661151
scalar tiger_cost_network.node[7].core_layer 	interests[7] 	196872
scalar tiger_cost_network.node[7].core_layer 	data[7] 	128722
scalar tiger_cost_network.node[7].content_store 	p_hit[7] 	0.34614876671137
scalar tiger_cost_network.node[7].content_store 	hits[7] 	68147
scalar tiger_cost_network.node[7].content_store 	misses[7] 	128725
scalar tiger_cost_network.node[7].content_store 	decision_yes[7] 	1279
scalar tiger_cost_network.node[7].content_store 	decision_no[7] 	127443
scalar tiger_cost_network.node[7].content_store 	decision_ratio[7] 	0.0099361414521216
scalar tiger_cost_network.node[8].core_layer 	interests[8] 	227572
scalar tiger_cost_network.node[8].core_layer 	data[8] 	162737
scalar tiger_cost_network.node[8].content_store 	p_hit[8] 	0.28487247991844
scalar tiger_cost_network.node[8].content_store 	hits[8] 	64829
scalar tiger_cost_network.node[8].content_store 	misses[8] 	162743
scalar tiger_cost_network.node[8].content_store 	decision_yes[8] 	1663
scalar tiger_cost_network.node[8].content_store 	decision_no[8] 	161074
scalar tiger_cost_network.node[8].content_store 	decision_ratio[8] 	0.010218942219655
scalar tiger_cost_network.node[9].core_layer 	interests[9] 	0
scalar tiger_cost_network.node[9].core_layer 	data[9] 	0
scalar tiger_cost_network.node[9].content_store 	p_hit[9] 	-nan
scalar tiger_cost_network.node[9].content_store 	hits[9] 	0
scalar tiger_cost_network.node[9].content_store 	misses[9] 	0
scalar tiger_cost_network.node[9].content_store 	decision_yes[9] 	0
scalar tiger_cost_network.node[9].content_store 	decision_no[9] 	0
scalar tiger_cost_network.node[9].content_store 	decision_ratio[9] 	0
scalar tiger_cost_network.node[10].core_layer 	interests[10] 	0
scalar tiger_cost_network.node[10].core_layer 	data[10] 	0
scalar tiger_cost_network.node[10].content_store 	p_hit[10] 	-nan
scalar tiger_cost_network.node[10].content_store 	hits[10] 	0
scalar tiger_cost_network.node[10].content_store 	misses[10] 	0
scalar tiger_cost_network.node[10].content_store 	decision_yes[10] 	0
scalar tiger_cost_network.node[10].content_store 	decision_no[10] 	0
scalar tiger_cost_network.node[10].content_store 	decision_ratio[10] 	0
scalar tiger_cost_network.node[11].core_layer 	interests[11] 	0
scalar tiger_cost_network.node[11].core_layer 	data[11] 	0
scalar tiger_cost_network.node[11].content_store 	p_hit[11] 	-nan
scalar tiger_cost_network.node[11].content_store 	hits[11] 	0
scalar tiger_cost_network.node[11].content_store 	misses[11] 	0
scalar tiger_cost_network.node[11].content_store 	decision_yes[11] 	0
scalar tiger_cost_network.node[11].content_store 	decision_no[11] 	0
scalar tiger_cost_network.node[11].content_store 	decision_ratio[11] 	0
scalar tiger_cost_network.node[12].core_layer 	interests[12] 	0
scalar tiger_cost_network.node[12].core_layer 	data[12] 	0
scalar tiger_cost_network.node[12].content_store 	p_hit[12] 	-nan
scalar tiger_cost_network.node[12].content_store 	hits[12] 	0
scalar tiger_cost_network.node[12].content_store 	misses[12] 	0
scalar tiger_cost_network.node[12].content_store 	decision_yes[12] 	0
scalar tiger_cost_network.node[12].content_store 	decision_no[12] 	0
scalar tiger_cost_network.node[12].content_store 	decision_ratio[12] 	0
scalar tiger_cost_network.node[13].core_layer 	interests[13] 	0
scalar tiger_cost_network.node[13].core_layer 	data[13] 	0
scalar tiger_cost_network.node[13].content_store 	p_hit[13] 	-nan
scalar tiger_cost_network.node[13].content_store 	hits[13] 	0
scalar tiger_cost_network.node[13].content_store 	misses[13] 	0
scalar tiger_cost_network.node[13].content_store 	decision_yes[13] 	0
scalar tiger_cost_network.node[13].content_store 	decision_no[13] 	0
scalar tiger_cost_network.node[13].content_store 	decision_ratio[13] 	0
scalar tiger_cost_network.node[14].core_layer 	interests[14] 	181533
scalar tiger_cost_network.node[14].core_layer 	data[14] 	120292
scalar tiger_cost_network.node[14].content_store 	p_hit[14] 	0.33734362347342
scalar tiger_cost_network.node[14].content_store 	hits[14] 	61239
scalar tiger_cost_network.node[14].content_store 	misses[14] 	120294
scalar tiger_cost_network.node[14].content_store 	decision_yes[14] 	1221
scalar tiger_cost_network.node[14].content_store 	decision_no[14] 	119071
scalar tiger_cost_network.node[14].content_store 	decision_ratio[14] 	0.010150300934393
scalar tiger_cost_network.node[15].core_layer 	interests[15] 	107954
scalar tiger_cost_network.node[15].core_layer 	repo_load[15] 	95394
scalar tiger_cost_network.node[15].core_layer 	data[15] 	4331
scalar tiger_cost_network.node[15].content_store 	p_hit[15] 	0.076226911462289
scalar tiger_cost_network.node[15].content_store 	hits[15] 	8229
scalar tiger_cost_network.node[15].content_store 	misses[15] 	99725
scalar tiger_cost_network.node[15].content_store 	decision_yes[15] 	1039
scalar tiger_cost_network.node[15].content_store 	decision_no[15] 	98686
scalar tiger_cost_network.node[15].content_store 	decision_ratio[15] 	0.01041865129105
scalar tiger_cost_network.node[16].core_layer 	interests[16] 	42150
scalar tiger_cost_network.node[16].core_layer 	data[16] 	34956
scalar tiger_cost_network.node[16].content_store 	p_hit[16] 	0.17067615658363
scalar tiger_cost_network.node[16].content_store 	hits[16] 	7194
scalar tiger_cost_network.node[16].content_store 	misses[16] 	34956
scalar tiger_cost_network.node[16].content_store 	decision_yes[16] 	384
scalar tiger_cost_network.node[16].content_store 	decision_no[16] 	34572
scalar tiger_cost_network.node[16].content_store 	decision_ratio[16] 	0.010985238585651
scalar tiger_cost_network.node[17].core_layer 	interests[17] 	0
scalar tiger_cost_network.node[17].core_layer 	data[17] 	0
scalar tiger_cost_network.node[17].content_store 	p_hit[17] 	-nan
scalar tiger_cost_network.node[17].content_store 	hits[17] 	0
scalar tiger_cost_network.node[17].content_store 	misses[17] 	0
scalar tiger_cost_network.node[17].content_store 	decision_yes[17] 	0
scalar tiger_cost_network.node[17].content_store 	decision_no[17] 	0
scalar tiger_cost_network.node[17].content_store 	decision_ratio[17] 	0
scalar tiger_cost_network.node[18].core_layer 	interests[18] 	0
scalar tiger_cost_network.node[18].core_layer 	data[18] 	0
scalar tiger_cost_network.node[18].content_store 	p_hit[18] 	-nan
scalar tiger_cost_network.node[18].content_store 	hits[18] 	0
scalar tiger_cost_network.node[18].content_store 	misses[18] 	0
scalar tiger_cost_network.node[18].content_store 	decision_yes[18] 	0
scalar tiger_cost_network.node[18].content_store 	decision_no[18] 	0
scalar tiger_cost_network.node[18].content_store 	decision_ratio[18] 	0
scalar tiger_cost_network.node[19].core_layer 	interests[19] 	0
scalar tiger_cost_network.node[19].core_layer 	data[19] 	0
scalar tiger_cost_network.node[19].content_store 	p_hit[19] 	-nan
scalar tiger_cost_network.node[19].content_store 	hits[19] 	0
scalar tiger_cost_network.node[19].content_store 	misses[19] 	0
scalar tiger_cost_network.node[19].content_store 	decision_yes[19] 	0
scalar tiger_cost_network.node[19].content_store 	decision_no[19] 	0
scalar tiger_cost_network.node[19].content_store 	decision_ratio[19] 	0
scalar tiger_cost_network.node[20].core_layer 	interests[20] 	0
scalar tiger_cost_network.node[20].core_layer 	data[20] 	0
scalar tiger_cost_network.node[20].content_store 	p_hit[20] 	-nan
scalar tiger_cost_network.node[20].content_store 	hits[20] 	0
scalar tiger_cost_network.node[20].content_store 	misses[20] 	0
scalar tiger_cost_network.node[20].content_store 	decision_yes[20] 	0
scalar tiger_cost_network.node[20].content_store 	decision_no[20] 	0
scalar tiger_cost_network.node[20].content_store 	decision_ratio[20] 	0
scalar tiger_cost_network.node[21].core_layer 	interests[21] 	0
scalar tiger_cost_network.node[21].core_layer 	data[21] 	0
scalar tiger_cost_network.node[21].content_store 	p_hit[21] 	-nan
scalar tiger_cost_network.node[21].content_store 	hits[21] 	0
scalar tiger_cost_network.node[21].content_store 	misses[21] 	0
scalar tiger_cost_network.node[21].content_store 	decision_yes[21] 	0
scalar tiger_cost_network.node[21].content_store 	decision_no[21] 	0
scalar tiger_cost_network.node[21].content_store 	decision_ratio[21] 	0
scalar tiger_cost_network.client[7] 	hdistance[7] 	2.5301626964296
scalar tiger_cost_network.client[7] 	downloads[7] 	180090
scalar tiger_cost_network.client[7] 	avg_time[7] 	0.000998916825
scalar tiger_cost_network.client[8] 	hdistance[8] 	2.7112143198409
scalar tiger_cost_network.client[8] 	downloads[8] 	180002
scalar tiger_cost_network.client[8] 	avg_time[8] 	0.001102415953
scalar tiger_cost_network.client[14] 	hdistance[14] 	1.4706270773567
scalar tiger_cost_network.client[14] 	downloads[14] 	180217
scalar tiger_cost_network.client[14] 	avg_time[14] 	0.000404864539
