version 2
run General-5-20140930-18:47:30-22543
attr D fix0.01
attr F nrr
attr R lru
attr a 1
attr configname General
attr csize 1e3
attr ctlg 1e5
attr datetime 20140930-18:47:30
attr experiment General
attr inifile omnetpp.ini
attr iterationvars "$net=tiger_cost, $rep=6, $priceratiovalue=10, $weights=0.333_0.333_0.334, $lambda=100, $a=1, $ctlg=1e5, $F=nrr, $ttl=10, $D=fix0.01, $xi=1, $R=lru, $csize=1e3, $pricebits=0, $window=60, $variance=0.05, $mytime=1800"
attr iterationvars2 "$net=tiger_cost, $rep=6, $priceratiovalue=10, $weights=0.333_0.333_0.334, $lambda=100, $a=1, $ctlg=1e5, $F=nrr, $ttl=10, $D=fix0.01, $xi=1, $R=lru, $csize=1e3, $pricebits=0, $window=60, $variance=0.05, $mytime=1800, $repetition=0"
attr lambda 100
attr measurement "$net=tiger_cost, $rep=6, $priceratiovalue=10, $weights=0.333_0.333_0.334, $lambda=100, $a=1, $ctlg=1e5, $F=nrr, $ttl=10, $D=fix0.01, $xi=1, $R=lru, $csize=1e3, $pricebits=0, $window=60, $variance=0.05, $mytime=1800"
attr mytime 1800
attr net tiger_cost
attr network networks.${net=tiger_cost,dtelecom_cost}_network
attr pricebits 0
attr priceratiovalue 10
attr processid 22543
attr rep 6
attr repetition 0
attr replication #0
attr resultdir results
attr runnumber 5
attr seedset 6
attr ttl 10
attr variance 0.05
attr weights 0.333_0.333_0.334
attr window 60
attr xi 1

scalar . 	a 	1
scalar . 	csize 	1e3
scalar . 	ctlg 	1e5
scalar . 	lambda 	100
scalar . 	mytime 	1800
scalar . 	pricebits 	0
scalar . 	priceratiovalue 	10
scalar . 	rep 	6
scalar . 	ttl 	10
scalar . 	variance 	0.05
scalar . 	window 	60
scalar . 	xi 	1
scalar tiger_cost_network.content_distribution 	repo-0 	14
scalar tiger_cost_network.content_distribution 	repo-1 	21
scalar tiger_cost_network.content_distribution 	repo-2 	2
scalar tiger_cost_network.content_distribution 	client-0 	19
scalar tiger_cost_network.content_distribution 	client-1 	20
scalar tiger_cost_network.content_distribution 	client-2 	10
scalar tiger_cost_network.content_distribution 	repo-0_card 	33435
scalar tiger_cost_network.content_distribution 	repo-0_price 	0
scalar tiger_cost_network.content_distribution 	repo-1_card 	33142
scalar tiger_cost_network.content_distribution 	repo-1_price 	1
scalar tiger_cost_network.content_distribution 	repo-2_card 	33423
scalar tiger_cost_network.content_distribution 	repo-2_price 	10
scalar tiger_cost_network.statistics 	repo_popularity[0] 	0.40396321781755
scalar tiger_cost_network.statistics 	repo_popularity[1] 	0.26951999071203
scalar tiger_cost_network.statistics 	repo_popularity[2] 	0.32651679147044
scalar tiger_cost_network.statistics 	stabilization_time 	36120
scalar tiger_cost_network.statistics 	p_hit 	0.19449334898279
scalar tiger_cost_network.statistics 	interests 	66920.727272727
scalar tiger_cost_network.statistics 	data 	42392.818181818
scalar tiger_cost_network.statistics 	hdistance 	2.1979910921664
scalar tiger_cost_network.statistics 	avg_time 	0.000540364596
scalar tiger_cost_network.statistics 	downloads 	539607
scalar tiger_cost_network.statistics 	total_cost 	923962
scalar tiger_cost_network.statistics 	total_replicas 	100000
scalar tiger_cost_network.statistics 	inner_hit 	0.53065286402882
scalar tiger_cost_network.node[0].core_layer 	interests[0] 	78187
scalar tiger_cost_network.node[0].core_layer 	data[0] 	67682
scalar tiger_cost_network.node[0].core_layer 	repo_int[0] 	253263
scalar tiger_cost_network.node[0].content_store 	p_hit[0] 	0.134357373988
scalar tiger_cost_network.node[0].content_store 	hits[0] 	10505
scalar tiger_cost_network.node[0].content_store 	misses[0] 	67682
scalar tiger_cost_network.node[0].content_store 	decision_yes[0] 	676
scalar tiger_cost_network.node[0].content_store 	decision_no[0] 	67006
scalar tiger_cost_network.node[0].content_store 	decision_ratio[0] 	0.009987884518779
scalar tiger_cost_network.node[1].core_layer 	interests[1] 	97185
scalar tiger_cost_network.node[1].core_layer 	data[1] 	91409
scalar tiger_cost_network.node[1].content_store 	p_hit[1] 	0.059433040078201
scalar tiger_cost_network.node[1].content_store 	hits[1] 	5776
scalar tiger_cost_network.node[1].content_store 	misses[1] 	91409
scalar tiger_cost_network.node[1].content_store 	decision_yes[1] 	871
scalar tiger_cost_network.node[1].content_store 	decision_no[1] 	90538
scalar tiger_cost_network.node[1].content_store 	decision_ratio[1] 	0.009528602216412
scalar tiger_cost_network.node[2].core_layer 	interests[2] 	115327
scalar tiger_cost_network.node[2].core_layer 	repo_load[2] 	83053
scalar tiger_cost_network.node[2].core_layer 	data[2] 	29622
scalar tiger_cost_network.node[2].content_store 	p_hit[2] 	0.022995482410884
scalar tiger_cost_network.node[2].content_store 	hits[2] 	2652
scalar tiger_cost_network.node[2].content_store 	misses[2] 	112675
scalar tiger_cost_network.node[2].content_store 	decision_yes[2] 	1071
scalar tiger_cost_network.node[2].content_store 	decision_no[2] 	111604
scalar tiger_cost_network.node[2].content_store 	decision_ratio[2] 	0.0095052141113823
scalar tiger_cost_network.node[3].core_layer 	interests[3] 	55824
scalar tiger_cost_network.node[3].core_layer 	data[3] 	53422
scalar tiger_cost_network.node[3].content_store 	p_hit[3] 	0.043028088277443
scalar tiger_cost_network.node[3].content_store 	hits[3] 	2402
scalar tiger_cost_network.node[3].content_store 	misses[3] 	53422
scalar tiger_cost_network.node[3].content_store 	decision_yes[3] 	526
scalar tiger_cost_network.node[3].content_store 	decision_no[3] 	52896
scalar tiger_cost_network.node[3].content_store 	decision_ratio[3] 	0.0098461308075325
scalar tiger_cost_network.node[4].core_layer 	interests[4] 	29691
scalar tiger_cost_network.node[4].core_layer 	data[4] 	26929
scalar tiger_cost_network.node[4].content_store 	p_hit[4] 	0.093024822336735
scalar tiger_cost_network.node[4].content_store 	hits[4] 	2762
scalar tiger_cost_network.node[4].content_store 	misses[4] 	26929
scalar tiger_cost_network.node[4].content_store 	decision_yes[4] 	276
scalar tiger_cost_network.node[4].content_store 	decision_no[4] 	26653
scalar tiger_cost_network.node[4].content_store 	decision_ratio[4] 	0.010249173753203
scalar tiger_cost_network.node[5].core_layer 	interests[5] 	0
scalar tiger_cost_network.node[5].core_layer 	data[5] 	0
scalar tiger_cost_network.node[5].content_store 	p_hit[5] 	-nan
scalar tiger_cost_network.node[5].content_store 	hits[5] 	0
scalar tiger_cost_network.node[5].content_store 	misses[5] 	0
scalar tiger_cost_network.node[5].content_store 	decision_yes[5] 	0
scalar tiger_cost_network.node[5].content_store 	decision_no[5] 	0
scalar tiger_cost_network.node[5].content_store 	decision_ratio[5] 	0
scalar tiger_cost_network.node[6].core_layer 	interests[6] 	0
scalar tiger_cost_network.node[6].core_layer 	data[6] 	0
scalar tiger_cost_network.node[6].content_store 	p_hit[6] 	-nan
scalar tiger_cost_network.node[6].content_store 	hits[6] 	0
scalar tiger_cost_network.node[6].content_store 	misses[6] 	0
scalar tiger_cost_network.node[6].content_store 	decision_yes[6] 	0
scalar tiger_cost_network.node[6].content_store 	decision_no[6] 	0
scalar tiger_cost_network.node[6].content_store 	decision_ratio[6] 	0
scalar tiger_cost_network.node[7].core_layer 	interests[7] 	43955
scalar tiger_cost_network.node[7].core_layer 	data[7] 	34363
scalar tiger_cost_network.node[7].content_store 	p_hit[7] 	0.21822318280059
scalar tiger_cost_network.node[7].content_store 	hits[7] 	9592
scalar tiger_cost_network.node[7].content_store 	misses[7] 	34363
scalar tiger_cost_network.node[7].content_store 	decision_yes[7] 	355
scalar tiger_cost_network.node[7].content_store 	decision_no[7] 	34008
scalar tiger_cost_network.node[7].content_store 	decision_ratio[7] 	0.010330879143265
scalar tiger_cost_network.node[8].core_layer 	interests[8] 	42810
scalar tiger_cost_network.node[8].core_layer 	data[8] 	34869
scalar tiger_cost_network.node[8].content_store 	p_hit[8] 	0.18549404344779
scalar tiger_cost_network.node[8].content_store 	hits[8] 	7941
scalar tiger_cost_network.node[8].content_store 	misses[8] 	34869
scalar tiger_cost_network.node[8].content_store 	decision_yes[8] 	339
scalar tiger_cost_network.node[8].content_store 	decision_no[8] 	34530
scalar tiger_cost_network.node[8].content_store 	decision_ratio[8] 	0.0097221027273509
scalar tiger_cost_network.node[9].core_layer 	interests[9] 	39757
scalar tiger_cost_network.node[9].core_layer 	data[9] 	32649
scalar tiger_cost_network.node[9].content_store 	p_hit[9] 	0.17878612571371
scalar tiger_cost_network.node[9].content_store 	hits[9] 	7108
scalar tiger_cost_network.node[9].content_store 	misses[9] 	32649
scalar tiger_cost_network.node[9].content_store 	decision_yes[9] 	344
scalar tiger_cost_network.node[9].content_store 	decision_no[9] 	32305
scalar tiger_cost_network.node[9].content_store 	decision_ratio[9] 	0.010536310453613
scalar tiger_cost_network.node[10].core_layer 	interests[10] 	180811
scalar tiger_cost_network.node[10].core_layer 	data[10] 	120297
scalar tiger_cost_network.node[10].content_store 	p_hit[10] 	0.33465884265891
scalar tiger_cost_network.node[10].content_store 	hits[10] 	60510
scalar tiger_cost_network.node[10].content_store 	misses[10] 	120301
scalar tiger_cost_network.node[10].content_store 	decision_yes[10] 	1203
scalar tiger_cost_network.node[10].content_store 	decision_no[10] 	119094
scalar tiger_cost_network.node[10].content_store 	decision_ratio[10] 	0.010000249382778
scalar tiger_cost_network.node[11].core_layer 	interests[11] 	21320
scalar tiger_cost_network.node[11].core_layer 	data[11] 	8840
scalar tiger_cost_network.node[11].content_store 	p_hit[11] 	0.58536585365854
scalar tiger_cost_network.node[11].content_store 	hits[11] 	12480
scalar tiger_cost_network.node[11].content_store 	misses[11] 	8840
scalar tiger_cost_network.node[11].content_store 	decision_yes[11] 	76
scalar tiger_cost_network.node[11].content_store 	decision_no[11] 	8764
scalar tiger_cost_network.node[11].content_store 	decision_ratio[11] 	0.0085972850678733
scalar tiger_cost_network.node[12].core_layer 	interests[12] 	60953
scalar tiger_cost_network.node[12].core_layer 	data[12] 	56783
scalar tiger_cost_network.node[12].content_store 	p_hit[12] 	0.068413367676735
scalar tiger_cost_network.node[12].content_store 	hits[12] 	4170
scalar tiger_cost_network.node[12].content_store 	misses[12] 	56783
scalar tiger_cost_network.node[12].content_store 	decision_yes[12] 	623
scalar tiger_cost_network.node[12].content_store 	decision_no[12] 	56160
scalar tiger_cost_network.node[12].content_store 	decision_ratio[12] 	0.010971593610764
scalar tiger_cost_network.node[13].core_layer 	interests[13] 	28434
scalar tiger_cost_network.node[13].core_layer 	data[13] 	26285
scalar tiger_cost_network.node[13].content_store 	p_hit[13] 	0.075578532742491
scalar tiger_cost_network.node[13].content_store 	hits[13] 	2149
scalar tiger_cost_network.node[13].content_store 	misses[13] 	26285
scalar tiger_cost_network.node[13].content_store 	decision_yes[13] 	249
scalar tiger_cost_network.node[13].content_store 	decision_no[13] 	26036
scalar tiger_cost_network.node[13].content_store 	decision_ratio[13] 	0.009473083507704
scalar tiger_cost_network.node[14].core_layer 	interests[14] 	78821
scalar tiger_cost_network.node[14].core_layer 	repo_load[14] 	76778
scalar tiger_cost_network.node[14].core_layer 	data[14] 	0
scalar tiger_cost_network.node[14].content_store 	p_hit[14] 	0.025919488461197
scalar tiger_cost_network.node[14].content_store 	hits[14] 	2043
scalar tiger_cost_network.node[14].content_store 	misses[14] 	76778
scalar tiger_cost_network.node[14].content_store 	decision_yes[14] 	797
scalar tiger_cost_network.node[14].content_store 	decision_no[14] 	75981
scalar tiger_cost_network.node[14].content_store 	decision_ratio[14] 	0.010380577769674
scalar tiger_cost_network.node[15].core_layer 	interests[15] 	0
scalar tiger_cost_network.node[15].core_layer 	data[15] 	0
scalar tiger_cost_network.node[15].content_store 	p_hit[15] 	-nan
scalar tiger_cost_network.node[15].content_store 	hits[15] 	0
scalar tiger_cost_network.node[15].content_store 	misses[15] 	0
scalar tiger_cost_network.node[15].content_store 	decision_yes[15] 	0
scalar tiger_cost_network.node[15].content_store 	decision_no[15] 	0
scalar tiger_cost_network.node[15].content_store 	decision_ratio[15] 	0
scalar tiger_cost_network.node[16].core_layer 	interests[16] 	0
scalar tiger_cost_network.node[16].core_layer 	data[16] 	0
scalar tiger_cost_network.node[16].content_store 	p_hit[16] 	-nan
scalar tiger_cost_network.node[16].content_store 	hits[16] 	0
scalar tiger_cost_network.node[16].content_store 	misses[16] 	0
scalar tiger_cost_network.node[16].content_store 	decision_yes[16] 	0
scalar tiger_cost_network.node[16].content_store 	decision_no[16] 	0
scalar tiger_cost_network.node[16].content_store 	decision_ratio[16] 	0
scalar tiger_cost_network.node[17].core_layer 	interests[17] 	31729
scalar tiger_cost_network.node[17].core_layer 	data[17] 	28805
scalar tiger_cost_network.node[17].content_store 	p_hit[17] 	0.092155441394308
scalar tiger_cost_network.node[17].content_store 	hits[17] 	2924
scalar tiger_cost_network.node[17].content_store 	misses[17] 	28805
scalar tiger_cost_network.node[17].content_store 	decision_yes[17] 	269
scalar tiger_cost_network.node[17].content_store 	decision_no[17] 	28536
scalar tiger_cost_network.node[17].content_store 	decision_ratio[17] 	0.0093386564832494
scalar tiger_cost_network.node[18].core_layer 	interests[18] 	53037
scalar tiger_cost_network.node[18].core_layer 	data[18] 	39039
scalar tiger_cost_network.node[18].content_store 	p_hit[18] 	0.26392895525765
scalar tiger_cost_network.node[18].content_store 	hits[18] 	13998
scalar tiger_cost_network.node[18].content_store 	misses[18] 	39039
scalar tiger_cost_network.node[18].content_store 	decision_yes[18] 	382
scalar tiger_cost_network.node[18].content_store 	decision_no[18] 	38657
scalar tiger_cost_network.node[18].content_store 	decision_ratio[18] 	0.0097850867081636
scalar tiger_cost_network.node[19].core_layer 	interests[19] 	219578
scalar tiger_cost_network.node[19].core_layer 	data[19] 	153978
scalar tiger_cost_network.node[19].content_store 	p_hit[19] 	0.2987503301788
scalar tiger_cost_network.node[19].content_store 	hits[19] 	65599
scalar tiger_cost_network.node[19].content_store 	misses[19] 	153979
scalar tiger_cost_network.node[19].content_store 	decision_yes[19] 	1591
scalar tiger_cost_network.node[19].content_store 	decision_no[19] 	152387
scalar tiger_cost_network.node[19].content_store 	decision_ratio[19] 	0.010332644923301
scalar tiger_cost_network.node[20].core_layer 	interests[20] 	189222
scalar tiger_cost_network.node[20].core_layer 	data[20] 	123004
scalar tiger_cost_network.node[20].content_store 	p_hit[20] 	0.34993816786632
scalar tiger_cost_network.node[20].content_store 	hits[20] 	66216
scalar tiger_cost_network.node[20].content_store 	misses[20] 	123006
scalar tiger_cost_network.node[20].content_store 	decision_yes[20] 	1214
scalar tiger_cost_network.node[20].content_store 	decision_no[20] 	121790
scalar tiger_cost_network.node[20].content_store 	decision_ratio[20] 	0.009869597736659
scalar tiger_cost_network.node[21].core_layer 	interests[21] 	105615
scalar tiger_cost_network.node[21].core_layer 	repo_load[21] 	93432
scalar tiger_cost_network.node[21].core_layer 	data[21] 	4666
scalar tiger_cost_network.node[21].content_store 	p_hit[21] 	0.071173602234531
scalar tiger_cost_network.node[21].content_store 	hits[21] 	7517
scalar tiger_cost_network.node[21].content_store 	misses[21] 	98098
scalar tiger_cost_network.node[21].content_store 	decision_yes[21] 	999
scalar tiger_cost_network.node[21].content_store 	decision_no[21] 	97099
scalar tiger_cost_network.node[21].content_store 	decision_ratio[21] 	0.010183693857163
scalar tiger_cost_network.client[10] 	hdistance[10] 	2.0628582208389
scalar tiger_cost_network.client[10] 	downloads[10] 	180231
scalar tiger_cost_network.client[10] 	avg_time[10] 	0.000491731136
scalar tiger_cost_network.client[19] 	hdistance[19] 	2.0120779394101
scalar tiger_cost_network.client[19] 	downloads[19] 	179832
scalar tiger_cost_network.client[19] 	avg_time[19] 	0.000425634194
scalar tiger_cost_network.client[20] 	hdistance[20] 	2.5190371162501
scalar tiger_cost_network.client[20] 	downloads[20] 	179544
scalar tiger_cost_network.client[20] 	avg_time[20] 	0.000703728459
