version 2
run General-11-20140930-15:59:54-21822
attr D fix0.01
attr F nrr
attr R lru
attr a 1
attr configname General
attr csize 1e3
attr ctlg 1e5
attr datetime 20140930-15:59:54
attr experiment General
attr inifile omnetpp.ini
attr iterationvars "$net=tiger_cost, $rep=15, $priceratiovalue=10, $weights=0.333_0.333_0.334, $lambda=100, $a=1, $ctlg=1e5, $F=nrr, $ttl=10, $D=fix0.01, $xi=1, $R=lru, $csize=1e3, $pricebits=0, $window=60, $variance=0.05, $mytime=1800"
attr iterationvars2 "$net=tiger_cost, $rep=15, $priceratiovalue=10, $weights=0.333_0.333_0.334, $lambda=100, $a=1, $ctlg=1e5, $F=nrr, $ttl=10, $D=fix0.01, $xi=1, $R=lru, $csize=1e3, $pricebits=0, $window=60, $variance=0.05, $mytime=1800, $repetition=0"
attr lambda 100
attr measurement "$net=tiger_cost, $rep=15, $priceratiovalue=10, $weights=0.333_0.333_0.334, $lambda=100, $a=1, $ctlg=1e5, $F=nrr, $ttl=10, $D=fix0.01, $xi=1, $R=lru, $csize=1e3, $pricebits=0, $window=60, $variance=0.05, $mytime=1800"
attr mytime 1800
attr net tiger_cost
attr network networks.${net=level3_cost,tiger_cost,dtelecom_cost}_network
attr pricebits 0
attr priceratiovalue 10
attr processid 21822
attr rep 15
attr repetition 0
attr replication #0
attr resultdir results
attr runnumber 11
attr seedset 15
attr ttl 10
attr variance 0.05
attr weights 0.333_0.333_0.334
attr window 60
attr xi 1

scalar . 	a 	1
scalar . 	csize 	1e3
scalar . 	ctlg 	1e5
scalar . 	lambda 	100
scalar . 	mytime 	1800
scalar . 	pricebits 	0
scalar . 	priceratiovalue 	10
scalar . 	rep 	15
scalar . 	ttl 	10
scalar . 	variance 	0.05
scalar . 	window 	60
scalar . 	xi 	1
scalar tiger_cost_network.content_distribution 	repo-0 	5
scalar tiger_cost_network.content_distribution 	repo-1 	8
scalar tiger_cost_network.content_distribution 	repo-2 	20
scalar tiger_cost_network.content_distribution 	client-0 	19
scalar tiger_cost_network.content_distribution 	client-1 	18
scalar tiger_cost_network.content_distribution 	client-2 	11
scalar tiger_cost_network.content_distribution 	repo-0_card 	33352
scalar tiger_cost_network.content_distribution 	repo-0_price 	1
scalar tiger_cost_network.content_distribution 	repo-1_card 	33287
scalar tiger_cost_network.content_distribution 	repo-1_price 	0
scalar tiger_cost_network.content_distribution 	repo-2_card 	33361
scalar tiger_cost_network.content_distribution 	repo-2_price 	10
scalar tiger_cost_network.statistics 	repo_popularity[0] 	0.39661812235512
scalar tiger_cost_network.statistics 	repo_popularity[1] 	0.26899614044563
scalar tiger_cost_network.statistics 	repo_popularity[2] 	0.33438573719926
scalar tiger_cost_network.statistics 	stabilization_time 	36120
scalar tiger_cost_network.statistics 	p_hit 	0.20548243358274
scalar tiger_cost_network.statistics 	interests 	60981.545454545
scalar tiger_cost_network.statistics 	data 	36432.909090909
scalar tiger_cost_network.statistics 	hdistance 	1.9736279533726
scalar tiger_cost_network.statistics 	avg_time 	0.000328166841
scalar tiger_cost_network.statistics 	downloads 	540066
scalar tiger_cost_network.statistics 	total_cost 	1056639
scalar tiger_cost_network.statistics 	total_replicas 	100000
scalar tiger_cost_network.statistics 	inner_hit 	0.51045242618495
scalar tiger_cost_network.node[0].core_layer 	interests[0] 	111622
scalar tiger_cost_network.node[0].core_layer 	data[0] 	84819
scalar tiger_cost_network.node[0].core_layer 	repo_int[0] 	264388
scalar tiger_cost_network.node[0].content_store 	p_hit[0] 	0.24012291483758
scalar tiger_cost_network.node[0].content_store 	hits[0] 	26803
scalar tiger_cost_network.node[0].content_store 	misses[0] 	84819
scalar tiger_cost_network.node[0].content_store 	decision_yes[0] 	820
scalar tiger_cost_network.node[0].content_store 	decision_no[0] 	83999
scalar tiger_cost_network.node[0].content_store 	decision_ratio[0] 	0.009667645221
scalar tiger_cost_network.node[1].core_layer 	interests[1] 	27838
scalar tiger_cost_network.node[1].core_layer 	data[1] 	26546
scalar tiger_cost_network.node[1].content_store 	p_hit[1] 	0.046411380127883
scalar tiger_cost_network.node[1].content_store 	hits[1] 	1292
scalar tiger_cost_network.node[1].content_store 	misses[1] 	26546
scalar tiger_cost_network.node[1].content_store 	decision_yes[1] 	241
scalar tiger_cost_network.node[1].content_store 	decision_no[1] 	26305
scalar tiger_cost_network.node[1].content_store 	decision_ratio[1] 	0.0090785805771114
scalar tiger_cost_network.node[2].core_layer 	interests[2] 	2035
scalar tiger_cost_network.node[2].core_layer 	data[2] 	433
scalar tiger_cost_network.node[2].content_store 	p_hit[2] 	0.78722358722359
scalar tiger_cost_network.node[2].content_store 	hits[2] 	1602
scalar tiger_cost_network.node[2].content_store 	misses[2] 	433
scalar tiger_cost_network.node[2].content_store 	decision_yes[2] 	6
scalar tiger_cost_network.node[2].content_store 	decision_no[2] 	427
scalar tiger_cost_network.node[2].content_store 	decision_ratio[2] 	0.013856812933025
scalar tiger_cost_network.node[3].core_layer 	interests[3] 	0
scalar tiger_cost_network.node[3].core_layer 	data[3] 	0
scalar tiger_cost_network.node[3].content_store 	p_hit[3] 	-nan
scalar tiger_cost_network.node[3].content_store 	hits[3] 	0
scalar tiger_cost_network.node[3].content_store 	misses[3] 	0
scalar tiger_cost_network.node[3].content_store 	decision_yes[3] 	0
scalar tiger_cost_network.node[3].content_store 	decision_no[3] 	0
scalar tiger_cost_network.node[3].content_store 	decision_ratio[3] 	0
scalar tiger_cost_network.node[4].core_layer 	interests[4] 	0
scalar tiger_cost_network.node[4].core_layer 	data[4] 	0
scalar tiger_cost_network.node[4].content_store 	p_hit[4] 	-nan
scalar tiger_cost_network.node[4].content_store 	hits[4] 	0
scalar tiger_cost_network.node[4].content_store 	misses[4] 	0
scalar tiger_cost_network.node[4].content_store 	decision_yes[4] 	0
scalar tiger_cost_network.node[4].content_store 	decision_no[4] 	0
scalar tiger_cost_network.node[4].content_store 	decision_ratio[4] 	0
scalar tiger_cost_network.node[5].core_layer 	interests[5] 	97387
scalar tiger_cost_network.node[5].core_layer 	repo_load[5] 	92009
scalar tiger_cost_network.node[5].core_layer 	data[5] 	0
scalar tiger_cost_network.node[5].content_store 	p_hit[5] 	0.055222976372616
scalar tiger_cost_network.node[5].content_store 	hits[5] 	5378
scalar tiger_cost_network.node[5].content_store 	misses[5] 	92009
scalar tiger_cost_network.node[5].content_store 	decision_yes[5] 	921
scalar tiger_cost_network.node[5].content_store 	decision_no[5] 	91088
scalar tiger_cost_network.node[5].content_store 	decision_ratio[5] 	0.010009890336815
scalar tiger_cost_network.node[6].core_layer 	interests[6] 	0
scalar tiger_cost_network.node[6].core_layer 	data[6] 	0
scalar tiger_cost_network.node[6].content_store 	p_hit[6] 	-nan
scalar tiger_cost_network.node[6].content_store 	hits[6] 	0
scalar tiger_cost_network.node[6].content_store 	misses[6] 	0
scalar tiger_cost_network.node[6].content_store 	decision_yes[6] 	0
scalar tiger_cost_network.node[6].content_store 	decision_no[6] 	0
scalar tiger_cost_network.node[6].content_store 	decision_ratio[6] 	0
scalar tiger_cost_network.node[7].core_layer 	interests[7] 	27771
scalar tiger_cost_network.node[7].core_layer 	data[7] 	25511
scalar tiger_cost_network.node[7].content_store 	p_hit[7] 	0.081379856685031
scalar tiger_cost_network.node[7].content_store 	hits[7] 	2260
scalar tiger_cost_network.node[7].content_store 	misses[7] 	25511
scalar tiger_cost_network.node[7].content_store 	decision_yes[7] 	263
scalar tiger_cost_network.node[7].content_store 	decision_no[7] 	25248
scalar tiger_cost_network.node[7].content_store 	decision_ratio[7] 	0.010309278350515
scalar tiger_cost_network.node[8].core_layer 	interests[8] 	78285
scalar tiger_cost_network.node[8].core_layer 	repo_load[8] 	75916
scalar tiger_cost_network.node[8].core_layer 	data[8] 	0
scalar tiger_cost_network.node[8].content_store 	p_hit[8] 	0.030261225011177
scalar tiger_cost_network.node[8].content_store 	hits[8] 	2369
scalar tiger_cost_network.node[8].content_store 	misses[8] 	75916
scalar tiger_cost_network.node[8].content_store 	decision_yes[8] 	775
scalar tiger_cost_network.node[8].content_store 	decision_no[8] 	75141
scalar tiger_cost_network.node[8].content_store 	decision_ratio[8] 	0.010208651667633
scalar tiger_cost_network.node[9].core_layer 	interests[9] 	6782
scalar tiger_cost_network.node[9].core_layer 	data[9] 	1675
scalar tiger_cost_network.node[9].content_store 	p_hit[9] 	0.75302270716603
scalar tiger_cost_network.node[9].content_store 	hits[9] 	5107
scalar tiger_cost_network.node[9].content_store 	misses[9] 	1675
scalar tiger_cost_network.node[9].content_store 	decision_yes[9] 	14
scalar tiger_cost_network.node[9].content_store 	decision_no[9] 	1661
scalar tiger_cost_network.node[9].content_store 	decision_ratio[9] 	0.0083582089552239
scalar tiger_cost_network.node[10].core_layer 	interests[10] 	35212
scalar tiger_cost_network.node[10].core_layer 	data[10] 	30449
scalar tiger_cost_network.node[10].content_store 	p_hit[10] 	0.13526638645916
scalar tiger_cost_network.node[10].content_store 	hits[10] 	4763
scalar tiger_cost_network.node[10].content_store 	misses[10] 	30449
scalar tiger_cost_network.node[10].content_store 	decision_yes[10] 	301
scalar tiger_cost_network.node[10].content_store 	decision_no[10] 	30148
scalar tiger_cost_network.node[10].content_store 	decision_ratio[10] 	0.0098853821143552
scalar tiger_cost_network.node[11].core_layer 	interests[11] 	184104
scalar tiger_cost_network.node[11].core_layer 	data[11] 	121589
scalar tiger_cost_network.node[11].content_store 	p_hit[11] 	0.33955807587016
scalar tiger_cost_network.node[11].content_store 	hits[11] 	62514
scalar tiger_cost_network.node[11].content_store 	misses[11] 	121590
scalar tiger_cost_network.node[11].content_store 	decision_yes[11] 	1182
scalar tiger_cost_network.node[11].content_store 	decision_no[11] 	120407
scalar tiger_cost_network.node[11].content_store 	decision_ratio[11] 	0.0097212741284162
scalar tiger_cost_network.node[12].core_layer 	interests[12] 	9119
scalar tiger_cost_network.node[12].core_layer 	data[12] 	2035
scalar tiger_cost_network.node[12].content_store 	p_hit[12] 	0.77683956574186
scalar tiger_cost_network.node[12].content_store 	hits[12] 	7084
scalar tiger_cost_network.node[12].content_store 	misses[12] 	2035
scalar tiger_cost_network.node[12].content_store 	decision_yes[12] 	17
scalar tiger_cost_network.node[12].content_store 	decision_no[12] 	2018
scalar tiger_cost_network.node[12].content_store 	decision_ratio[12] 	0.0083538083538084
scalar tiger_cost_network.node[13].core_layer 	interests[13] 	0
scalar tiger_cost_network.node[13].core_layer 	data[13] 	0
scalar tiger_cost_network.node[13].content_store 	p_hit[13] 	-nan
scalar tiger_cost_network.node[13].content_store 	hits[13] 	0
scalar tiger_cost_network.node[13].content_store 	misses[13] 	0
scalar tiger_cost_network.node[13].content_store 	decision_yes[13] 	0
scalar tiger_cost_network.node[13].content_store 	decision_no[13] 	0
scalar tiger_cost_network.node[13].content_store 	decision_ratio[13] 	0
scalar tiger_cost_network.node[14].core_layer 	interests[14] 	0
scalar tiger_cost_network.node[14].core_layer 	data[14] 	0
scalar tiger_cost_network.node[14].content_store 	p_hit[14] 	-nan
scalar tiger_cost_network.node[14].content_store 	hits[14] 	0
scalar tiger_cost_network.node[14].content_store 	misses[14] 	0
scalar tiger_cost_network.node[14].content_store 	decision_yes[14] 	0
scalar tiger_cost_network.node[14].content_store 	decision_no[14] 	0
scalar tiger_cost_network.node[14].content_store 	decision_ratio[14] 	0
scalar tiger_cost_network.node[15].core_layer 	interests[15] 	0
scalar tiger_cost_network.node[15].core_layer 	data[15] 	0
scalar tiger_cost_network.node[15].content_store 	p_hit[15] 	-nan
scalar tiger_cost_network.node[15].content_store 	hits[15] 	0
scalar tiger_cost_network.node[15].content_store 	misses[15] 	0
scalar tiger_cost_network.node[15].content_store 	decision_yes[15] 	0
scalar tiger_cost_network.node[15].content_store 	decision_no[15] 	0
scalar tiger_cost_network.node[15].content_store 	decision_ratio[15] 	0
scalar tiger_cost_network.node[16].core_layer 	interests[16] 	0
scalar tiger_cost_network.node[16].core_layer 	data[16] 	0
scalar tiger_cost_network.node[16].content_store 	p_hit[16] 	-nan
scalar tiger_cost_network.node[16].content_store 	hits[16] 	0
scalar tiger_cost_network.node[16].content_store 	misses[16] 	0
scalar tiger_cost_network.node[16].content_store 	decision_yes[16] 	0
scalar tiger_cost_network.node[16].content_store 	decision_no[16] 	0
scalar tiger_cost_network.node[16].content_store 	decision_ratio[16] 	0
scalar tiger_cost_network.node[17].core_layer 	interests[17] 	105849
scalar tiger_cost_network.node[17].core_layer 	data[17] 	97387
scalar tiger_cost_network.node[17].content_store 	p_hit[17] 	0.079944071271339
scalar tiger_cost_network.node[17].content_store 	hits[17] 	8462
scalar tiger_cost_network.node[17].content_store 	misses[17] 	97387
scalar tiger_cost_network.node[17].content_store 	decision_yes[17] 	979
scalar tiger_cost_network.node[17].content_store 	decision_no[17] 	96408
scalar tiger_cost_network.node[17].content_store 	decision_ratio[17] 	0.010052676435253
scalar tiger_cost_network.node[18].core_layer 	interests[18] 	291586
scalar tiger_cost_network.node[18].core_layer 	data[18] 	228878
scalar tiger_cost_network.node[18].content_store 	p_hit[18] 	0.21503775901449
scalar tiger_cost_network.node[18].content_store 	hits[18] 	62702
scalar tiger_cost_network.node[18].content_store 	misses[18] 	228884
scalar tiger_cost_network.node[18].content_store 	decision_yes[18] 	2270
scalar tiger_cost_network.node[18].content_store 	decision_no[18] 	226608
scalar tiger_cost_network.node[18].content_store 	decision_ratio[18] 	0.0099179475528447
scalar tiger_cost_network.node[19].core_layer 	interests[19] 	194570
scalar tiger_cost_network.node[19].core_layer 	data[19] 	124465
scalar tiger_cost_network.node[19].content_store 	p_hit[19] 	0.360302204862
scalar tiger_cost_network.node[19].content_store 	hits[19] 	70104
scalar tiger_cost_network.node[19].content_store 	misses[19] 	124466
scalar tiger_cost_network.node[19].content_store 	decision_yes[19] 	1266
scalar tiger_cost_network.node[19].content_store 	decision_no[19] 	123199
scalar tiger_cost_network.node[19].content_store 	decision_ratio[19] 	0.010171534166231
scalar tiger_cost_network.node[20].core_layer 	interests[20] 	132736
scalar tiger_cost_network.node[20].core_layer 	repo_load[20] 	96463
scalar tiger_cost_network.node[20].core_layer 	data[20] 	27771
scalar tiger_cost_network.node[20].content_store 	p_hit[20] 	0.064051952748312
scalar tiger_cost_network.node[20].content_store 	hits[20] 	8502
scalar tiger_cost_network.node[20].content_store 	misses[20] 	124234
scalar tiger_cost_network.node[20].content_store 	decision_yes[20] 	1227
scalar tiger_cost_network.node[20].content_store 	decision_no[20] 	123007
scalar tiger_cost_network.node[20].content_store 	decision_ratio[20] 	0.0098765233349969
scalar tiger_cost_network.node[21].core_layer 	interests[21] 	36698
scalar tiger_cost_network.node[21].core_layer 	data[21] 	29966
scalar tiger_cost_network.node[21].content_store 	p_hit[21] 	0.18344323941359
scalar tiger_cost_network.node[21].content_store 	hits[21] 	6732
scalar tiger_cost_network.node[21].content_store 	misses[21] 	29966
scalar tiger_cost_network.node[21].content_store 	decision_yes[21] 	299
scalar tiger_cost_network.node[21].content_store 	decision_no[21] 	29667
scalar tiger_cost_network.node[21].content_store 	decision_ratio[21] 	0.0099779750383768
scalar tiger_cost_network.client[11] 	hdistance[11] 	2.4642635004554
scalar tiger_cost_network.client[11] 	downloads[11] 	180068
scalar tiger_cost_network.client[11] 	avg_time[11] 	0.000494379319
scalar tiger_cost_network.client[18] 	hdistance[18] 	1.7248185067602
scalar tiger_cost_network.client[18] 	downloads[18] 	180172
scalar tiger_cost_network.client[18] 	avg_time[18] 	0.000292127
scalar tiger_cost_network.client[19] 	hdistance[19] 	1.7318018529022
scalar tiger_cost_network.client[19] 	downloads[19] 	179826
scalar tiger_cost_network.client[19] 	avg_time[19] 	0.000197994206
