version 2
run General-11-20140930-18:36:13-19936
attr D fix0.01
attr F nrr
attr R lru
attr a 1
attr configname General
attr csize 1e3
attr ctlg 1e5
attr datetime 20140930-18:36:13
attr experiment General
attr inifile omnetpp.ini
attr iterationvars "$net=tiger_cost, $rep=4, $priceratiovalue=10, $weights=0.333_0.333_0.334, $lambda=100, $a=1, $ctlg=1e5, $F=nrr, $ttl=10, $D=fix0.01, $xi=1, $R=lru, $csize=1e3, $pricebits=0, $window=60, $variance=0.05, $mytime=1800"
attr iterationvars2 "$net=tiger_cost, $rep=4, $priceratiovalue=10, $weights=0.333_0.333_0.334, $lambda=100, $a=1, $ctlg=1e5, $F=nrr, $ttl=10, $D=fix0.01, $xi=1, $R=lru, $csize=1e3, $pricebits=0, $window=60, $variance=0.05, $mytime=1800, $repetition=0"
attr lambda 100
attr measurement "$net=tiger_cost, $rep=4, $priceratiovalue=10, $weights=0.333_0.333_0.334, $lambda=100, $a=1, $ctlg=1e5, $F=nrr, $ttl=10, $D=fix0.01, $xi=1, $R=lru, $csize=1e3, $pricebits=0, $window=60, $variance=0.05, $mytime=1800"
attr mytime 1800
attr net tiger_cost
attr network networks.${net=tiger_cost,dtelecom_cost}_network
attr pricebits 0
attr priceratiovalue 10
attr processid 19936
attr rep 4
attr repetition 0
attr replication #0
attr resultdir results
attr runnumber 11
attr seedset 4
attr ttl 10
attr variance 0.05
attr weights 0.333_0.333_0.334
attr window 60
attr xi 1

scalar . 	a 	1
scalar . 	csize 	1e3
scalar . 	ctlg 	1e5
scalar . 	lambda 	100
scalar . 	mytime 	1800
scalar . 	pricebits 	0
scalar . 	priceratiovalue 	10
scalar . 	rep 	4
scalar . 	ttl 	10
scalar . 	variance 	0.05
scalar . 	window 	60
scalar . 	xi 	1
scalar tiger_cost_network.content_distribution 	repo-0 	18
scalar tiger_cost_network.content_distribution 	repo-1 	16
scalar tiger_cost_network.content_distribution 	repo-2 	10
scalar tiger_cost_network.content_distribution 	client-0 	6
scalar tiger_cost_network.content_distribution 	client-1 	2
scalar tiger_cost_network.content_distribution 	client-2 	20
scalar tiger_cost_network.content_distribution 	repo-0_card 	33274
scalar tiger_cost_network.content_distribution 	repo-0_price 	0
scalar tiger_cost_network.content_distribution 	repo-1_card 	33153
scalar tiger_cost_network.content_distribution 	repo-1_price 	1
scalar tiger_cost_network.content_distribution 	repo-2_card 	33573
scalar tiger_cost_network.content_distribution 	repo-2_price 	10
scalar tiger_cost_network.statistics 	repo_popularity[0] 	0.33945880017902
scalar tiger_cost_network.statistics 	repo_popularity[1] 	0.30988277584688
scalar tiger_cost_network.statistics 	repo_popularity[2] 	0.35065842397411
scalar tiger_cost_network.statistics 	stabilization_time 	36120
scalar tiger_cost_network.statistics 	p_hit 	0.19549298261866
scalar tiger_cost_network.statistics 	interests 	62805.090909091
scalar tiger_cost_network.statistics 	data 	38251.545454545
scalar tiger_cost_network.statistics 	hdistance 	2.0578795266825
scalar tiger_cost_network.statistics 	avg_time 	0.000669017057
scalar tiger_cost_network.statistics 	downloads 	540165
scalar tiger_cost_network.statistics 	total_cost 	977955
scalar tiger_cost_network.statistics 	total_replicas 	100000
scalar tiger_cost_network.statistics 	inner_hit 	0.50006016680088
scalar tiger_cost_network.node[0].core_layer 	interests[0] 	33816
scalar tiger_cost_network.node[0].core_layer 	data[0] 	31310
scalar tiger_cost_network.node[0].core_layer 	repo_int[0] 	270050
scalar tiger_cost_network.node[0].content_store 	p_hit[0] 	0.074106931629998
scalar tiger_cost_network.node[0].content_store 	hits[0] 	2506
scalar tiger_cost_network.node[0].content_store 	misses[0] 	31310
scalar tiger_cost_network.node[0].content_store 	decision_yes[0] 	331
scalar tiger_cost_network.node[0].content_store 	decision_no[0] 	30979
scalar tiger_cost_network.node[0].content_store 	decision_ratio[0] 	0.010571702331523
scalar tiger_cost_network.node[1].core_layer 	interests[1] 	109813
scalar tiger_cost_network.node[1].core_layer 	data[1] 	101198
scalar tiger_cost_network.node[1].content_store 	p_hit[1] 	0.078451549452251
scalar tiger_cost_network.node[1].content_store 	hits[1] 	8615
scalar tiger_cost_network.node[1].content_store 	misses[1] 	101198
scalar tiger_cost_network.node[1].content_store 	decision_yes[1] 	944
scalar tiger_cost_network.node[1].content_store 	decision_no[1] 	100254
scalar tiger_cost_network.node[1].content_store 	decision_ratio[1] 	0.009328247593826
scalar tiger_cost_network.node[2].core_layer 	interests[2] 	180304
scalar tiger_cost_network.node[2].core_layer 	data[2] 	120107
scalar tiger_cost_network.node[2].content_store 	p_hit[2] 	0.33383618777176
scalar tiger_cost_network.node[2].content_store 	hits[2] 	60192
scalar tiger_cost_network.node[2].content_store 	misses[2] 	120112
scalar tiger_cost_network.node[2].content_store 	decision_yes[2] 	1178
scalar tiger_cost_network.node[2].content_store 	decision_no[2] 	118929
scalar tiger_cost_network.node[2].content_store 	decision_ratio[2] 	0.0098079212702007
scalar tiger_cost_network.node[3].core_layer 	interests[3] 	39820
scalar tiger_cost_network.node[3].core_layer 	data[3] 	34273
scalar tiger_cost_network.node[3].content_store 	p_hit[3] 	0.13930185836263
scalar tiger_cost_network.node[3].content_store 	hits[3] 	5547
scalar tiger_cost_network.node[3].content_store 	misses[3] 	34273
scalar tiger_cost_network.node[3].content_store 	decision_yes[3] 	339
scalar tiger_cost_network.node[3].content_store 	decision_no[3] 	33934
scalar tiger_cost_network.node[3].content_store 	decision_ratio[3] 	0.0098911679747907
scalar tiger_cost_network.node[4].core_layer 	interests[4] 	37487
scalar tiger_cost_network.node[4].core_layer 	data[4] 	32736
scalar tiger_cost_network.node[4].content_store 	p_hit[4] 	0.12673726891989
scalar tiger_cost_network.node[4].content_store 	hits[4] 	4751
scalar tiger_cost_network.node[4].content_store 	misses[4] 	32736
scalar tiger_cost_network.node[4].content_store 	decision_yes[4] 	343
scalar tiger_cost_network.node[4].content_store 	decision_no[4] 	32393
scalar tiger_cost_network.node[4].content_store 	decision_ratio[4] 	0.010477761485826
scalar tiger_cost_network.node[5].core_layer 	interests[5] 	10364
scalar tiger_cost_network.node[5].core_layer 	data[5] 	2078
scalar tiger_cost_network.node[5].content_store 	p_hit[5] 	0.79949826321883
scalar tiger_cost_network.node[5].content_store 	hits[5] 	8286
scalar tiger_cost_network.node[5].content_store 	misses[5] 	2078
scalar tiger_cost_network.node[5].content_store 	decision_yes[5] 	17
scalar tiger_cost_network.node[5].content_store 	decision_no[5] 	2061
scalar tiger_cost_network.node[5].content_store 	decision_ratio[5] 	0.0081809432146295
scalar tiger_cost_network.node[6].core_layer 	interests[6] 	212279
scalar tiger_cost_network.node[6].core_layer 	data[6] 	151074
scalar tiger_cost_network.node[6].content_store 	p_hit[6] 	0.2882998318251
scalar tiger_cost_network.node[6].content_store 	hits[6] 	61200
scalar tiger_cost_network.node[6].content_store 	misses[6] 	151079
scalar tiger_cost_network.node[6].content_store 	decision_yes[6] 	1518
scalar tiger_cost_network.node[6].content_store 	decision_no[6] 	149556
scalar tiger_cost_network.node[6].content_store 	decision_ratio[6] 	0.010048055919616
scalar tiger_cost_network.node[7].core_layer 	interests[7] 	125862
scalar tiger_cost_network.node[7].core_layer 	data[7] 	105470
scalar tiger_cost_network.node[7].content_store 	p_hit[7] 	0.16201871891437
scalar tiger_cost_network.node[7].content_store 	hits[7] 	20392
scalar tiger_cost_network.node[7].content_store 	misses[7] 	105470
scalar tiger_cost_network.node[7].content_store 	decision_yes[7] 	1080
scalar tiger_cost_network.node[7].content_store 	decision_no[7] 	104390
scalar tiger_cost_network.node[7].content_store 	decision_ratio[7] 	0.010239878638475
scalar tiger_cost_network.node[8].core_layer 	interests[8] 	78633
scalar tiger_cost_network.node[8].core_layer 	data[8] 	69305
scalar tiger_cost_network.node[8].content_store 	p_hit[8] 	0.11862703953811
scalar tiger_cost_network.node[8].content_store 	hits[8] 	9328
scalar tiger_cost_network.node[8].content_store 	misses[8] 	69305
scalar tiger_cost_network.node[8].content_store 	decision_yes[8] 	731
scalar tiger_cost_network.node[8].content_store 	decision_no[8] 	68574
scalar tiger_cost_network.node[8].content_store 	decision_ratio[8] 	0.010547579539716
scalar tiger_cost_network.node[9].core_layer 	interests[9] 	0
scalar tiger_cost_network.node[9].core_layer 	data[9] 	0
scalar tiger_cost_network.node[9].content_store 	p_hit[9] 	-nan
scalar tiger_cost_network.node[9].content_store 	hits[9] 	0
scalar tiger_cost_network.node[9].content_store 	misses[9] 	0
scalar tiger_cost_network.node[9].content_store 	decision_yes[9] 	0
scalar tiger_cost_network.node[9].content_store 	decision_no[9] 	0
scalar tiger_cost_network.node[9].content_store 	decision_ratio[9] 	0
scalar tiger_cost_network.node[10].core_layer 	interests[10] 	93342
scalar tiger_cost_network.node[10].core_layer 	repo_load[10] 	89621
scalar tiger_cost_network.node[10].core_layer 	data[10] 	0
scalar tiger_cost_network.node[10].content_store 	p_hit[10] 	0.039864155471278
scalar tiger_cost_network.node[10].content_store 	hits[10] 	3721
scalar tiger_cost_network.node[10].content_store 	misses[10] 	89621
scalar tiger_cost_network.node[10].content_store 	decision_yes[10] 	897
scalar tiger_cost_network.node[10].content_store 	decision_no[10] 	88724
scalar tiger_cost_network.node[10].content_store 	decision_ratio[10] 	0.010008814898294
scalar tiger_cost_network.node[11].core_layer 	interests[11] 	0
scalar tiger_cost_network.node[11].core_layer 	data[11] 	0
scalar tiger_cost_network.node[11].content_store 	p_hit[11] 	-nan
scalar tiger_cost_network.node[11].content_store 	hits[11] 	0
scalar tiger_cost_network.node[11].content_store 	misses[11] 	0
scalar tiger_cost_network.node[11].content_store 	decision_yes[11] 	0
scalar tiger_cost_network.node[11].content_store 	decision_no[11] 	0
scalar tiger_cost_network.node[11].content_store 	decision_ratio[11] 	0
scalar tiger_cost_network.node[12].core_layer 	interests[12] 	37238
scalar tiger_cost_network.node[12].core_layer 	data[12] 	33051
scalar tiger_cost_network.node[12].content_store 	p_hit[12] 	0.11243890649337
scalar tiger_cost_network.node[12].content_store 	hits[12] 	4187
scalar tiger_cost_network.node[12].content_store 	misses[12] 	33051
scalar tiger_cost_network.node[12].content_store 	decision_yes[12] 	323
scalar tiger_cost_network.node[12].content_store 	decision_no[12] 	32728
scalar tiger_cost_network.node[12].content_store 	decision_ratio[12] 	0.0097727754077032
scalar tiger_cost_network.node[13].core_layer 	interests[13] 	0
scalar tiger_cost_network.node[13].core_layer 	data[13] 	0
scalar tiger_cost_network.node[13].content_store 	p_hit[13] 	-nan
scalar tiger_cost_network.node[13].content_store 	hits[13] 	0
scalar tiger_cost_network.node[13].content_store 	misses[13] 	0
scalar tiger_cost_network.node[13].content_store 	decision_yes[13] 	0
scalar tiger_cost_network.node[13].content_store 	decision_no[13] 	0
scalar tiger_cost_network.node[13].content_store 	decision_ratio[13] 	0
scalar tiger_cost_network.node[14].core_layer 	interests[14] 	0
scalar tiger_cost_network.node[14].core_layer 	data[14] 	0
scalar tiger_cost_network.node[14].content_store 	p_hit[14] 	-nan
scalar tiger_cost_network.node[14].content_store 	hits[14] 	0
scalar tiger_cost_network.node[14].content_store 	misses[14] 	0
scalar tiger_cost_network.node[14].content_store 	decision_yes[14] 	0
scalar tiger_cost_network.node[14].content_store 	decision_no[14] 	0
scalar tiger_cost_network.node[14].content_store 	decision_ratio[14] 	0
scalar tiger_cost_network.node[15].core_layer 	interests[15] 	0
scalar tiger_cost_network.node[15].core_layer 	data[15] 	0
scalar tiger_cost_network.node[15].content_store 	p_hit[15] 	-nan
scalar tiger_cost_network.node[15].content_store 	hits[15] 	0
scalar tiger_cost_network.node[15].content_store 	misses[15] 	0
scalar tiger_cost_network.node[15].content_store 	decision_yes[15] 	0
scalar tiger_cost_network.node[15].content_store 	decision_no[15] 	0
scalar tiger_cost_network.node[15].content_store 	decision_ratio[15] 	0
scalar tiger_cost_network.node[16].core_layer 	interests[16] 	84990
scalar tiger_cost_network.node[16].core_layer 	repo_load[16] 	81745
scalar tiger_cost_network.node[16].core_layer 	data[16] 	0
scalar tiger_cost_network.node[16].content_store 	p_hit[16] 	0.038180962466172
scalar tiger_cost_network.node[16].content_store 	hits[16] 	3245
scalar tiger_cost_network.node[16].content_store 	misses[16] 	81745
scalar tiger_cost_network.node[16].content_store 	decision_yes[16] 	816
scalar tiger_cost_network.node[16].content_store 	decision_no[16] 	80929
scalar tiger_cost_network.node[16].content_store 	decision_ratio[16] 	0.0099822619120435
scalar tiger_cost_network.node[17].core_layer 	interests[17] 	44481
scalar tiger_cost_network.node[17].core_layer 	data[17] 	35684
scalar tiger_cost_network.node[17].content_store 	p_hit[17] 	0.19776983431128
scalar tiger_cost_network.node[17].content_store 	hits[17] 	8797
scalar tiger_cost_network.node[17].content_store 	misses[17] 	35684
scalar tiger_cost_network.node[17].content_store 	decision_yes[17] 	322
scalar tiger_cost_network.node[17].content_store 	decision_no[17] 	35362
scalar tiger_cost_network.node[17].content_store 	decision_ratio[17] 	0.0090236520569443
scalar tiger_cost_network.node[18].core_layer 	interests[18] 	110582
scalar tiger_cost_network.node[18].core_layer 	repo_load[18] 	98684
scalar tiger_cost_network.node[18].core_layer 	data[18] 	4582
scalar tiger_cost_network.node[18].content_store 	p_hit[18] 	0.06615904939321
scalar tiger_cost_network.node[18].content_store 	hits[18] 	7316
scalar tiger_cost_network.node[18].content_store 	misses[18] 	103266
scalar tiger_cost_network.node[18].content_store 	decision_yes[18] 	1008
scalar tiger_cost_network.node[18].content_store 	decision_no[18] 	102258
scalar tiger_cost_network.node[18].content_store 	decision_ratio[18] 	0.0097611992330486
scalar tiger_cost_network.node[19].core_layer 	interests[19] 	0
scalar tiger_cost_network.node[19].core_layer 	data[19] 	0
scalar tiger_cost_network.node[19].content_store 	p_hit[19] 	-nan
scalar tiger_cost_network.node[19].content_store 	hits[19] 	0
scalar tiger_cost_network.node[19].content_store 	misses[19] 	0
scalar tiger_cost_network.node[19].content_store 	decision_yes[19] 	0
scalar tiger_cost_network.node[19].content_store 	decision_no[19] 	0
scalar tiger_cost_network.node[19].content_store 	decision_ratio[19] 	0
scalar tiger_cost_network.node[20].core_layer 	interests[20] 	182701
scalar tiger_cost_network.node[20].core_layer 	data[20] 	120666
scalar tiger_cost_network.node[20].content_store 	p_hit[20] 	0.3395274245899
scalar tiger_cost_network.node[20].content_store 	hits[20] 	62032
scalar tiger_cost_network.node[20].content_store 	misses[20] 	120669
scalar tiger_cost_network.node[20].content_store 	decision_yes[20] 	1296
scalar tiger_cost_network.node[20].content_store 	decision_no[20] 	119370
scalar tiger_cost_network.node[20].content_store 	decision_ratio[20] 	0.010740390830889
scalar tiger_cost_network.node[21].core_layer 	interests[21] 	0
scalar tiger_cost_network.node[21].core_layer 	data[21] 	0
scalar tiger_cost_network.node[21].content_store 	p_hit[21] 	-nan
scalar tiger_cost_network.node[21].content_store 	hits[21] 	0
scalar tiger_cost_network.node[21].content_store 	misses[21] 	0
scalar tiger_cost_network.node[21].content_store 	decision_yes[21] 	0
scalar tiger_cost_network.node[21].content_store 	decision_no[21] 	0
scalar tiger_cost_network.node[21].content_store 	decision_ratio[21] 	0
scalar tiger_cost_network.client[2] 	hdistance[2] 	2.1129370298923
scalar tiger_cost_network.client[2] 	downloads[2] 	179879
scalar tiger_cost_network.client[2] 	avg_time[2] 	0.000906732893
scalar tiger_cost_network.client[6] 	hdistance[6] 	1.9425105485232
scalar tiger_cost_network.client[6] 	downloads[6] 	180120
scalar tiger_cost_network.client[6] 	avg_time[6] 	0.000567432976
scalar tiger_cost_network.client[20] 	hdistance[20] 	2.1181910016318
scalar tiger_cost_network.client[20] 	downloads[20] 	180166
scalar tiger_cost_network.client[20] 	avg_time[20] 	0.000532885303
