version 2
run General-11-20140930-16:54:58-22125
attr D fix0.01
attr F nrr
attr R lru
attr a 1
attr configname General
attr csize 1e3
attr ctlg 1e5
attr datetime 20140930-16:54:58
attr experiment General
attr inifile omnetpp.ini
attr iterationvars "$net=tiger_cost, $rep=17, $priceratiovalue=10, $weights=0.333_0.333_0.334, $lambda=100, $a=1, $ctlg=1e5, $F=nrr, $ttl=10, $D=fix0.01, $xi=1, $R=lru, $csize=1e3, $pricebits=0, $window=60, $variance=0.05, $mytime=1800"
attr iterationvars2 "$net=tiger_cost, $rep=17, $priceratiovalue=10, $weights=0.333_0.333_0.334, $lambda=100, $a=1, $ctlg=1e5, $F=nrr, $ttl=10, $D=fix0.01, $xi=1, $R=lru, $csize=1e3, $pricebits=0, $window=60, $variance=0.05, $mytime=1800, $repetition=0"
attr lambda 100
attr measurement "$net=tiger_cost, $rep=17, $priceratiovalue=10, $weights=0.333_0.333_0.334, $lambda=100, $a=1, $ctlg=1e5, $F=nrr, $ttl=10, $D=fix0.01, $xi=1, $R=lru, $csize=1e3, $pricebits=0, $window=60, $variance=0.05, $mytime=1800"
attr mytime 1800
attr net tiger_cost
attr network networks.${net=level3_cost,tiger_cost,dtelecom_cost}_network
attr pricebits 0
attr priceratiovalue 10
attr processid 22125
attr rep 17
attr repetition 0
attr replication #0
attr resultdir results
attr runnumber 11
attr seedset 17
attr ttl 10
attr variance 0.05
attr weights 0.333_0.333_0.334
attr window 60
attr xi 1

scalar . 	a 	1
scalar . 	csize 	1e3
scalar . 	ctlg 	1e5
scalar . 	lambda 	100
scalar . 	mytime 	1800
scalar . 	pricebits 	0
scalar . 	priceratiovalue 	10
scalar . 	rep 	17
scalar . 	ttl 	10
scalar . 	variance 	0.05
scalar . 	window 	60
scalar . 	xi 	1
scalar tiger_cost_network.content_distribution 	repo-0 	21
scalar tiger_cost_network.content_distribution 	repo-1 	11
scalar tiger_cost_network.content_distribution 	repo-2 	13
scalar tiger_cost_network.content_distribution 	client-0 	0
scalar tiger_cost_network.content_distribution 	client-1 	5
scalar tiger_cost_network.content_distribution 	client-2 	10
scalar tiger_cost_network.content_distribution 	repo-0_card 	33434
scalar tiger_cost_network.content_distribution 	repo-0_price 	10
scalar tiger_cost_network.content_distribution 	repo-1_card 	33236
scalar tiger_cost_network.content_distribution 	repo-1_price 	0
scalar tiger_cost_network.content_distribution 	repo-2_card 	33330
scalar tiger_cost_network.content_distribution 	repo-2_price 	1
scalar tiger_cost_network.statistics 	repo_popularity[0] 	0.28775972584778
scalar tiger_cost_network.statistics 	repo_popularity[1] 	0.38489717054386
scalar tiger_cost_network.statistics 	repo_popularity[2] 	0.32734310360837
scalar tiger_cost_network.statistics 	stabilization_time 	36120
scalar tiger_cost_network.statistics 	p_hit 	0.20140609243575
scalar tiger_cost_network.statistics 	interests 	62384.363636364
scalar tiger_cost_network.statistics 	data 	37846.454545455
scalar tiger_cost_network.statistics 	hdistance 	2.0295286918567
scalar tiger_cost_network.statistics 	avg_time 	0.000576694373
scalar tiger_cost_network.statistics 	downloads 	539824
scalar tiger_cost_network.statistics 	total_cost 	845022
scalar tiger_cost_network.statistics 	total_replicas 	100000
scalar tiger_cost_network.statistics 	inner_hit 	0.51206504342156
scalar tiger_cost_network.node[0].core_layer 	interests[0] 	223537
scalar tiger_cost_network.node[0].core_layer 	data[0] 	161699
scalar tiger_cost_network.node[0].core_layer 	repo_int[0] 	263399
scalar tiger_cost_network.node[0].content_store 	p_hit[0] 	0.27661639907487
scalar tiger_cost_network.node[0].content_store 	hits[0] 	61834
scalar tiger_cost_network.node[0].content_store 	misses[0] 	161703
scalar tiger_cost_network.node[0].content_store 	decision_yes[0] 	1672
scalar tiger_cost_network.node[0].content_store 	decision_no[0] 	160027
scalar tiger_cost_network.node[0].content_store 	decision_ratio[0] 	0.010340200001237
scalar tiger_cost_network.node[1].core_layer 	interests[1] 	38110
scalar tiger_cost_network.node[1].core_layer 	data[1] 	33503
scalar tiger_cost_network.node[1].content_store 	p_hit[1] 	0.12086066649173
scalar tiger_cost_network.node[1].content_store 	hits[1] 	4606
scalar tiger_cost_network.node[1].content_store 	misses[1] 	33504
scalar tiger_cost_network.node[1].content_store 	decision_yes[1] 	333
scalar tiger_cost_network.node[1].content_store 	decision_no[1] 	33170
scalar tiger_cost_network.node[1].content_store 	decision_ratio[1] 	0.0099394084111871
scalar tiger_cost_network.node[2].core_layer 	interests[2] 	65906
scalar tiger_cost_network.node[2].core_layer 	data[2] 	60351
scalar tiger_cost_network.node[2].content_store 	p_hit[2] 	0.084271538251449
scalar tiger_cost_network.node[2].content_store 	hits[2] 	5554
scalar tiger_cost_network.node[2].content_store 	misses[2] 	60352
scalar tiger_cost_network.node[2].content_store 	decision_yes[2] 	618
scalar tiger_cost_network.node[2].content_store 	decision_no[2] 	59733
scalar tiger_cost_network.node[2].content_store 	decision_ratio[2] 	0.010240095441666
scalar tiger_cost_network.node[3].core_layer 	interests[3] 	34834
scalar tiger_cost_network.node[3].core_layer 	data[3] 	30968
scalar tiger_cost_network.node[3].content_store 	p_hit[3] 	0.11098352184647
scalar tiger_cost_network.node[3].content_store 	hits[3] 	3866
scalar tiger_cost_network.node[3].content_store 	misses[3] 	30968
scalar tiger_cost_network.node[3].content_store 	decision_yes[3] 	276
scalar tiger_cost_network.node[3].content_store 	decision_no[3] 	30692
scalar tiger_cost_network.node[3].content_store 	decision_ratio[3] 	0.0089124257297856
scalar tiger_cost_network.node[4].core_layer 	interests[4] 	37955
scalar tiger_cost_network.node[4].core_layer 	data[4] 	32096
scalar tiger_cost_network.node[4].content_store 	p_hit[4] 	0.1543670135687
scalar tiger_cost_network.node[4].content_store 	hits[4] 	5859
scalar tiger_cost_network.node[4].content_store 	misses[4] 	32096
scalar tiger_cost_network.node[4].content_store 	decision_yes[4] 	290
scalar tiger_cost_network.node[4].content_store 	decision_no[4] 	31806
scalar tiger_cost_network.node[4].content_store 	decision_ratio[4] 	0.0090353938185444
scalar tiger_cost_network.node[5].core_layer 	interests[5] 	180546
scalar tiger_cost_network.node[5].core_layer 	data[5] 	120050
scalar tiger_cost_network.node[5].content_store 	p_hit[5] 	0.33504480852525
scalar tiger_cost_network.node[5].content_store 	hits[5] 	60491
scalar tiger_cost_network.node[5].content_store 	misses[5] 	120055
scalar tiger_cost_network.node[5].content_store 	decision_yes[5] 	1126
scalar tiger_cost_network.node[5].content_store 	decision_no[5] 	118924
scalar tiger_cost_network.node[5].content_store 	decision_ratio[5] 	0.0093794252394835
scalar tiger_cost_network.node[6].core_layer 	interests[6] 	32017
scalar tiger_cost_network.node[6].core_layer 	data[6] 	28803
scalar tiger_cost_network.node[6].content_store 	p_hit[6] 	0.1003841709092
scalar tiger_cost_network.node[6].content_store 	hits[6] 	3214
scalar tiger_cost_network.node[6].content_store 	misses[6] 	28803
scalar tiger_cost_network.node[6].content_store 	decision_yes[6] 	296
scalar tiger_cost_network.node[6].content_store 	decision_no[6] 	28507
scalar tiger_cost_network.node[6].content_store 	decision_ratio[6] 	0.010276707287435
scalar tiger_cost_network.node[7].core_layer 	interests[7] 	30197
scalar tiger_cost_network.node[7].core_layer 	data[7] 	27596
scalar tiger_cost_network.node[7].content_store 	p_hit[7] 	0.086134384210352
scalar tiger_cost_network.node[7].content_store 	hits[7] 	2601
scalar tiger_cost_network.node[7].content_store 	misses[7] 	27596
scalar tiger_cost_network.node[7].content_store 	decision_yes[7] 	261
scalar tiger_cost_network.node[7].content_store 	decision_no[7] 	27335
scalar tiger_cost_network.node[7].content_store 	decision_ratio[7] 	0.0094578924481809
scalar tiger_cost_network.node[8].core_layer 	interests[8] 	28316
scalar tiger_cost_network.node[8].core_layer 	data[8] 	26665
scalar tiger_cost_network.node[8].content_store 	p_hit[8] 	0.058306257946038
scalar tiger_cost_network.node[8].content_store 	hits[8] 	1651
scalar tiger_cost_network.node[8].content_store 	misses[8] 	26665
scalar tiger_cost_network.node[8].content_store 	decision_yes[8] 	250
scalar tiger_cost_network.node[8].content_store 	decision_no[8] 	26415
scalar tiger_cost_network.node[8].content_store 	decision_ratio[8] 	0.0093755859741234
scalar tiger_cost_network.node[9].core_layer 	interests[9] 	30968
scalar tiger_cost_network.node[9].core_layer 	data[9] 	27083
scalar tiger_cost_network.node[9].content_store 	p_hit[9] 	0.125452079566
scalar tiger_cost_network.node[9].content_store 	hits[9] 	3885
scalar tiger_cost_network.node[9].content_store 	misses[9] 	27083
scalar tiger_cost_network.node[9].content_store 	decision_yes[9] 	263
scalar tiger_cost_network.node[9].content_store 	decision_no[9] 	26820
scalar tiger_cost_network.node[9].content_store 	decision_ratio[9] 	0.0097108887494
scalar tiger_cost_network.node[10].core_layer 	interests[10] 	181925
scalar tiger_cost_network.node[10].core_layer 	data[10] 	120767
scalar tiger_cost_network.node[10].content_store 	p_hit[10] 	0.33615500893225
scalar tiger_cost_network.node[10].content_store 	hits[10] 	61155
scalar tiger_cost_network.node[10].content_store 	misses[10] 	120770
scalar tiger_cost_network.node[10].content_store 	decision_yes[10] 	1145
scalar tiger_cost_network.node[10].content_store 	decision_no[10] 	119622
scalar tiger_cost_network.node[10].content_store 	decision_ratio[10] 	0.0094810668477316
scalar tiger_cost_network.node[11].core_layer 	interests[11] 	133391
scalar tiger_cost_network.node[11].core_layer 	repo_load[11] 	106436
scalar tiger_cost_network.node[11].core_layer 	data[11] 	10698
scalar tiger_cost_network.node[11].content_store 	p_hit[11] 	0.12187478915369
scalar tiger_cost_network.node[11].content_store 	hits[11] 	16257
scalar tiger_cost_network.node[11].content_store 	misses[11] 	117134
scalar tiger_cost_network.node[11].content_store 	decision_yes[11] 	1171
scalar tiger_cost_network.node[11].content_store 	decision_no[11] 	115963
scalar tiger_cost_network.node[11].content_store 	decision_ratio[11] 	0.0099970973415063
scalar tiger_cost_network.node[12].core_layer 	interests[12] 	40605
scalar tiger_cost_network.node[12].core_layer 	data[12] 	31692
scalar tiger_cost_network.node[12].content_store 	p_hit[12] 	0.21950498707056
scalar tiger_cost_network.node[12].content_store 	hits[12] 	8913
scalar tiger_cost_network.node[12].content_store 	misses[12] 	31692
scalar tiger_cost_network.node[12].content_store 	decision_yes[12] 	315
scalar tiger_cost_network.node[12].content_store 	decision_no[12] 	31377
scalar tiger_cost_network.node[12].content_store 	decision_ratio[12] 	0.0099394168875426
scalar tiger_cost_network.node[13].core_layer 	interests[13] 	82980
scalar tiger_cost_network.node[13].core_layer 	repo_load[13] 	80512
scalar tiger_cost_network.node[13].core_layer 	data[13] 	0
scalar tiger_cost_network.node[13].content_store 	p_hit[13] 	0.029742106531694
scalar tiger_cost_network.node[13].content_store 	hits[13] 	2468
scalar tiger_cost_network.node[13].content_store 	misses[13] 	80512
scalar tiger_cost_network.node[13].content_store 	decision_yes[13] 	811
scalar tiger_cost_network.node[13].content_store 	decision_no[13] 	79701
scalar tiger_cost_network.node[13].content_store 	decision_ratio[13] 	0.010073032591415
scalar tiger_cost_network.node[14].core_layer 	interests[14] 	0
scalar tiger_cost_network.node[14].core_layer 	data[14] 	0
scalar tiger_cost_network.node[14].content_store 	p_hit[14] 	-nan
scalar tiger_cost_network.node[14].content_store 	hits[14] 	0
scalar tiger_cost_network.node[14].content_store 	misses[14] 	0
scalar tiger_cost_network.node[14].content_store 	decision_yes[14] 	0
scalar tiger_cost_network.node[14].content_store 	decision_no[14] 	0
scalar tiger_cost_network.node[14].content_store 	decision_ratio[14] 	0
scalar tiger_cost_network.node[15].core_layer 	interests[15] 	0
scalar tiger_cost_network.node[15].core_layer 	data[15] 	0
scalar tiger_cost_network.node[15].content_store 	p_hit[15] 	-nan
scalar tiger_cost_network.node[15].content_store 	hits[15] 	0
scalar tiger_cost_network.node[15].content_store 	misses[15] 	0
scalar tiger_cost_network.node[15].content_store 	decision_yes[15] 	0
scalar tiger_cost_network.node[15].content_store 	decision_no[15] 	0
scalar tiger_cost_network.node[15].content_store 	decision_ratio[15] 	0
scalar tiger_cost_network.node[16].core_layer 	interests[16] 	0
scalar tiger_cost_network.node[16].core_layer 	data[16] 	0
scalar tiger_cost_network.node[16].content_store 	p_hit[16] 	-nan
scalar tiger_cost_network.node[16].content_store 	hits[16] 	0
scalar tiger_cost_network.node[16].content_store 	misses[16] 	0
scalar tiger_cost_network.node[16].content_store 	decision_yes[16] 	0
scalar tiger_cost_network.node[16].content_store 	decision_no[16] 	0
scalar tiger_cost_network.node[16].content_store 	decision_ratio[16] 	0
scalar tiger_cost_network.node[17].core_layer 	interests[17] 	57657
scalar tiger_cost_network.node[17].core_layer 	data[17] 	46520
scalar tiger_cost_network.node[17].content_store 	p_hit[17] 	0.19315954697608
scalar tiger_cost_network.node[17].content_store 	hits[17] 	11137
scalar tiger_cost_network.node[17].content_store 	misses[17] 	46520
scalar tiger_cost_network.node[17].content_store 	decision_yes[17] 	484
scalar tiger_cost_network.node[17].content_store 	decision_no[17] 	46036
scalar tiger_cost_network.node[17].content_store 	decision_ratio[17] 	0.010404127257094
scalar tiger_cost_network.node[18].core_layer 	interests[18] 	59707
scalar tiger_cost_network.node[18].core_layer 	data[18] 	47439
scalar tiger_cost_network.node[18].content_store 	p_hit[18] 	0.20547004538831
scalar tiger_cost_network.node[18].content_store 	hits[18] 	12268
scalar tiger_cost_network.node[18].content_store 	misses[18] 	47439
scalar tiger_cost_network.node[18].content_store 	decision_yes[18] 	490
scalar tiger_cost_network.node[18].content_store 	decision_no[18] 	46949
scalar tiger_cost_network.node[18].content_store 	decision_ratio[18] 	0.010329054153755
scalar tiger_cost_network.node[19].core_layer 	interests[19] 	31752
scalar tiger_cost_network.node[19].core_layer 	data[19] 	26159
scalar tiger_cost_network.node[19].content_store 	p_hit[19] 	0.17614638447972
scalar tiger_cost_network.node[19].content_store 	hits[19] 	5593
scalar tiger_cost_network.node[19].content_store 	misses[19] 	26159
scalar tiger_cost_network.node[19].content_store 	decision_yes[19] 	286
scalar tiger_cost_network.node[19].content_store 	decision_no[19] 	25873
scalar tiger_cost_network.node[19].content_store 	decision_ratio[19] 	0.010933139646011
scalar tiger_cost_network.node[20].core_layer 	interests[20] 	3478
scalar tiger_cost_network.node[20].core_layer 	data[20] 	533
scalar tiger_cost_network.node[20].content_store 	p_hit[20] 	0.84675100632547
scalar tiger_cost_network.node[20].content_store 	hits[20] 	2945
scalar tiger_cost_network.node[20].content_store 	misses[20] 	533
scalar tiger_cost_network.node[20].content_store 	decision_yes[20] 	6
scalar tiger_cost_network.node[20].content_store 	decision_no[20] 	527
scalar tiger_cost_network.node[20].content_store 	decision_ratio[20] 	0.01125703564728
scalar tiger_cost_network.node[21].core_layer 	interests[21] 	78575
scalar tiger_cost_network.node[21].core_layer 	repo_load[21] 	76451
scalar tiger_cost_network.node[21].core_layer 	data[21] 	0
scalar tiger_cost_network.node[21].content_store 	p_hit[21] 	0.027031498568247
scalar tiger_cost_network.node[21].content_store 	hits[21] 	2124
scalar tiger_cost_network.node[21].content_store 	misses[21] 	76451
scalar tiger_cost_network.node[21].content_store 	decision_yes[21] 	763
scalar tiger_cost_network.node[21].content_store 	decision_no[21] 	75688
scalar tiger_cost_network.node[21].content_store 	decision_ratio[21] 	0.0099802487868046
scalar tiger_cost_network.client[0] 	hdistance[0] 	1.5597506292611
scalar tiger_cost_network.client[0] 	downloads[0] 	179973
scalar tiger_cost_network.client[0] 	avg_time[0] 	0.000296833545
scalar tiger_cost_network.client[5] 	hdistance[5] 	2.7715723939883
scalar tiger_cost_network.client[5] 	downloads[5] 	180381
scalar tiger_cost_network.client[5] 	avg_time[5] 	0.001121845478
scalar tiger_cost_network.client[10] 	hdistance[10] 	1.7572630523207
scalar tiger_cost_network.client[10] 	downloads[10] 	179470
scalar tiger_cost_network.client[10] 	avg_time[10] 	0.000311404097
