version 2
run General-0-20150612-13:50:30-28794
attr D lce
attr F spr
attr R lru
attr a 1
attr configname General
attr datetime 20150612-13:50:30
attr experiment General
attr inifile /tmp/ccnsim-0.3/omnetpp.ini
attr iterationvars "$net=abilene, $rep=0, $a=1, $F=spr, $ttl=1000, $D=lce, $R=lru, $window=60, $variance=0.05, $mytime=1800"
attr iterationvars2 "$net=abilene, $rep=0, $a=1, $F=spr, $ttl=1000, $D=lce, $R=lru, $window=60, $variance=0.05, $mytime=1800, $repetition=0"
attr measurement "$net=abilene, $rep=0, $a=1, $F=spr, $ttl=1000, $D=lce, $R=lru, $window=60, $variance=0.05, $mytime=1800"
attr mytime 1800
attr net abilene
attr network networks.${net=abilene}_network
attr processid 28794
attr rep 0
attr repetition 0
attr replication #0
attr resultdir results
attr runnumber 0
attr seedset 0
attr ttl 1000
attr variance 0.05
attr window 60

scalar . 	a 	1
scalar . 	mytime 	1800
scalar . 	rep 	0
scalar . 	ttl 	1000
scalar . 	variance 	0.05
scalar . 	window 	60
scalar abilene_network.content_distribution 	repo-0 	5
scalar abilene_network.content_distribution 	client-0 	8
scalar abilene_network.content_distribution 	client-1 	9
scalar abilene_network.content_distribution 	client-2 	5
scalar abilene_network.content_distribution 	client-3 	0
scalar abilene_network.content_distribution 	client-4 	1
scalar abilene_network.content_distribution 	client-5 	7
scalar abilene_network.content_distribution 	client-6 	6
scalar abilene_network.content_distribution 	client-7 	2
scalar abilene_network.content_distribution 	client-8 	4
scalar abilene_network.content_distribution 	client-9 	10
scalar abilene_network.content_distribution 	client-10 	3
scalar abilene_network.content_distribution 	repo-0_card 	10000
scalar abilene_network.content_distribution 	repo-0_price 	0
scalar abilene_network.statistics 	stabilization_time 	36060
scalar abilene_network.statistics 	p_hit 	0
scalar abilene_network.statistics 	interests 	6747.0909090909
scalar abilene_network.statistics 	data 	4941.7272727273
scalar abilene_network.statistics 	hdistance 	3.7272727272727
scalar abilene_network.statistics 	avg_time 	0.015367458716
scalar abilene_network.statistics 	downloads 	19855
scalar abilene_network.statistics 	total_cost 	0
scalar abilene_network.statistics 	total_replicas 	10000
scalar abilene_network.statistics 	inner_hit 	0.00050365147318056
scalar abilene_network.statistics 	interests_sent 	19859
scalar abilene_network.node[0].core_layer 	interests[0] 	1814
scalar abilene_network.node[0].core_layer 	data[0] 	1812
scalar abilene_network.node[0].core_layer 	megabytes_sent[face$o[0]->client[0]] 	0
scalar abilene_network.node[0].core_layer 	megabytes_sent[face$o[1]->node[1]] 	0
scalar abilene_network.node[0].core_layer 	megabytes_sent[face$o[2]->node[10]] 	0
scalar abilene_network.node[0].content_store 	p_hit[0] 	0
scalar abilene_network.node[0].content_store 	hits[0] 	0
scalar abilene_network.node[0].content_store 	misses[0] 	1814
scalar abilene_network.node[0].content_store 	decision_yes[0] 	1812
scalar abilene_network.node[0].content_store 	decision_no[0] 	0
scalar abilene_network.node[0].content_store 	decision_ratio[0] 	1
scalar abilene_network.node[1].core_layer 	interests[1] 	5467
scalar abilene_network.node[1].core_layer 	data[1] 	5464
scalar abilene_network.node[1].core_layer 	megabytes_sent[face$o[0]->client[1]] 	0
scalar abilene_network.node[1].core_layer 	megabytes_sent[face$o[1]->node[0]] 	0
scalar abilene_network.node[1].core_layer 	megabytes_sent[face$o[2]->node[10]] 	0
scalar abilene_network.node[1].core_layer 	megabytes_sent[face$o[3]->node[2]] 	0
scalar abilene_network.node[1].content_store 	p_hit[1] 	0
scalar abilene_network.node[1].content_store 	hits[1] 	0
scalar abilene_network.node[1].content_store 	misses[1] 	5467
scalar abilene_network.node[1].content_store 	decision_yes[1] 	5464
scalar abilene_network.node[1].content_store 	decision_no[1] 	0
scalar abilene_network.node[1].content_store 	decision_ratio[1] 	1
scalar abilene_network.node[2].core_layer 	interests[2] 	7278
scalar abilene_network.node[2].core_layer 	data[2] 	7276
scalar abilene_network.node[2].core_layer 	megabytes_sent[face$o[0]->client[2]] 	0
scalar abilene_network.node[2].core_layer 	megabytes_sent[face$o[1]->node[1]] 	0
scalar abilene_network.node[2].core_layer 	megabytes_sent[face$o[2]->node[3]] 	0
scalar abilene_network.node[2].core_layer 	megabytes_sent[face$o[3]->node[8]] 	0
scalar abilene_network.node[2].content_store 	p_hit[2] 	0
scalar abilene_network.node[2].content_store 	hits[2] 	0
scalar abilene_network.node[2].content_store 	misses[2] 	7278
scalar abilene_network.node[2].content_store 	decision_yes[2] 	7276
scalar abilene_network.node[2].content_store 	decision_no[2] 	0
scalar abilene_network.node[2].content_store 	decision_ratio[2] 	1
scalar abilene_network.node[3].core_layer 	interests[3] 	9040
scalar abilene_network.node[3].core_layer 	data[3] 	9038
scalar abilene_network.node[3].core_layer 	megabytes_sent[face$o[0]->client[3]] 	0
scalar abilene_network.node[3].core_layer 	megabytes_sent[face$o[1]->node[2]] 	0
scalar abilene_network.node[3].core_layer 	megabytes_sent[face$o[2]->node[4]] 	0
scalar abilene_network.node[3].core_layer 	megabytes_sent[face$o[3]->node[7]] 	0
scalar abilene_network.node[3].content_store 	p_hit[3] 	0
scalar abilene_network.node[3].content_store 	hits[3] 	0
scalar abilene_network.node[3].content_store 	misses[3] 	9040
scalar abilene_network.node[3].content_store 	decision_yes[3] 	9038
scalar abilene_network.node[3].content_store 	decision_no[3] 	0
scalar abilene_network.node[3].content_store 	decision_ratio[3] 	1
scalar abilene_network.node[4].core_layer 	interests[4] 	10865
scalar abilene_network.node[4].core_layer 	data[4] 	10863
scalar abilene_network.node[4].core_layer 	megabytes_sent[face$o[0]->client[4]] 	0
scalar abilene_network.node[4].core_layer 	megabytes_sent[face$o[1]->node[3]] 	0
scalar abilene_network.node[4].core_layer 	megabytes_sent[face$o[2]->node[5]] 	0
scalar abilene_network.node[4].content_store 	p_hit[4] 	0
scalar abilene_network.node[4].content_store 	hits[4] 	0
scalar abilene_network.node[4].content_store 	misses[4] 	10865
scalar abilene_network.node[4].content_store 	decision_yes[4] 	10863
scalar abilene_network.node[4].content_store 	decision_no[4] 	0
scalar abilene_network.node[4].content_store 	decision_ratio[4] 	1
scalar abilene_network.node[5].core_layer 	interests[5] 	19845
scalar abilene_network.node[5].core_layer 	repo_load[5] 	19845
scalar abilene_network.node[5].core_layer 	data[5] 	0
scalar abilene_network.node[5].core_layer 	megabytes_sent[face$o[0]->client[5]] 	0
scalar abilene_network.node[5].core_layer 	megabytes_sent[face$o[1]->node[4]] 	0
scalar abilene_network.node[5].core_layer 	megabytes_sent[face$o[2]->node[6]] 	0
scalar abilene_network.node[5].content_store 	p_hit[5] 	0
scalar abilene_network.node[5].content_store 	hits[5] 	0
scalar abilene_network.node[5].content_store 	misses[5] 	19845
scalar abilene_network.node[5].content_store 	decision_yes[5] 	19845
scalar abilene_network.node[5].content_store 	decision_no[5] 	0
scalar abilene_network.node[5].content_store 	decision_ratio[5] 	1
scalar abilene_network.node[6].core_layer 	interests[6] 	7183
scalar abilene_network.node[6].core_layer 	data[6] 	7182
scalar abilene_network.node[6].core_layer 	megabytes_sent[face$o[0]->client[6]] 	0
scalar abilene_network.node[6].core_layer 	megabytes_sent[face$o[1]->node[5]] 	0
scalar abilene_network.node[6].core_layer 	megabytes_sent[face$o[2]->node[7]] 	0
scalar abilene_network.node[6].content_store 	p_hit[6] 	0
scalar abilene_network.node[6].content_store 	hits[6] 	0
scalar abilene_network.node[6].content_store 	misses[6] 	7183
scalar abilene_network.node[6].content_store 	decision_yes[6] 	7182
scalar abilene_network.node[6].content_store 	decision_no[6] 	0
scalar abilene_network.node[6].content_store 	decision_ratio[6] 	1
scalar abilene_network.node[7].core_layer 	interests[7] 	5422
scalar abilene_network.node[7].core_layer 	data[7] 	5422
scalar abilene_network.node[7].core_layer 	megabytes_sent[face$o[0]->client[7]] 	0
scalar abilene_network.node[7].core_layer 	megabytes_sent[face$o[1]->node[3]] 	0
scalar abilene_network.node[7].core_layer 	megabytes_sent[face$o[2]->node[6]] 	0
scalar abilene_network.node[7].core_layer 	megabytes_sent[face$o[3]->node[8]] 	0
scalar abilene_network.node[7].content_store 	p_hit[7] 	0
scalar abilene_network.node[7].content_store 	hits[7] 	0
scalar abilene_network.node[7].content_store 	misses[7] 	5422
scalar abilene_network.node[7].content_store 	decision_yes[7] 	5422
scalar abilene_network.node[7].content_store 	decision_no[7] 	0
scalar abilene_network.node[7].content_store 	decision_ratio[7] 	1
scalar abilene_network.node[8].core_layer 	interests[8] 	3627
scalar abilene_network.node[8].core_layer 	data[8] 	3626
scalar abilene_network.node[8].core_layer 	megabytes_sent[face$o[0]->client[8]] 	0
scalar abilene_network.node[8].core_layer 	megabytes_sent[face$o[1]->node[2]] 	0
scalar abilene_network.node[8].core_layer 	megabytes_sent[face$o[2]->node[7]] 	0
scalar abilene_network.node[8].core_layer 	megabytes_sent[face$o[3]->node[9]] 	0
scalar abilene_network.node[8].content_store 	p_hit[8] 	0
scalar abilene_network.node[8].content_store 	hits[8] 	0
scalar abilene_network.node[8].content_store 	misses[8] 	3627
scalar abilene_network.node[8].content_store 	decision_yes[8] 	3626
scalar abilene_network.node[8].content_store 	decision_no[8] 	0
scalar abilene_network.node[8].content_store 	decision_ratio[8] 	1
scalar abilene_network.node[9].core_layer 	interests[9] 	1836
scalar abilene_network.node[9].core_layer 	data[9] 	1836
scalar abilene_network.node[9].core_layer 	megabytes_sent[face$o[0]->client[9]] 	0
scalar abilene_network.node[9].core_layer 	megabytes_sent[face$o[1]->node[10]] 	0
scalar abilene_network.node[9].core_layer 	megabytes_sent[face$o[2]->node[8]] 	0
scalar abilene_network.node[9].content_store 	p_hit[9] 	0
scalar abilene_network.node[9].content_store 	hits[9] 	0
scalar abilene_network.node[9].content_store 	misses[9] 	1836
scalar abilene_network.node[9].content_store 	decision_yes[9] 	1836
scalar abilene_network.node[9].content_store 	decision_no[9] 	0
scalar abilene_network.node[9].content_store 	decision_ratio[9] 	1
scalar abilene_network.node[10].core_layer 	interests[10] 	1841
scalar abilene_network.node[10].core_layer 	data[10] 	1840
scalar abilene_network.node[10].core_layer 	megabytes_sent[face$o[0]->client[10]] 	0
scalar abilene_network.node[10].core_layer 	megabytes_sent[face$o[1]->node[0]] 	0
scalar abilene_network.node[10].core_layer 	megabytes_sent[face$o[2]->node[1]] 	0
scalar abilene_network.node[10].core_layer 	megabytes_sent[face$o[3]->node[9]] 	0
scalar abilene_network.node[10].content_store 	p_hit[10] 	0
scalar abilene_network.node[10].content_store 	hits[10] 	0
scalar abilene_network.node[10].content_store 	misses[10] 	1841
scalar abilene_network.node[10].content_store 	decision_yes[10] 	1840
scalar abilene_network.node[10].content_store 	decision_no[10] 	0
scalar abilene_network.node[10].content_store 	decision_ratio[10] 	1
scalar abilene_network.client[0] 	hdistance[0] 	6
scalar abilene_network.client[0] 	downloads[0] 	1812
scalar abilene_network.client[0] 	avg_time[0] 	0.031187136924
scalar abilene_network.client[0] 	interests_sent[0] 	1814
scalar abilene_network.client[1] 	hdistance[1] 	5
scalar abilene_network.client[1] 	downloads[1] 	1813
scalar abilene_network.client[1] 	avg_time[1] 	0.020235121956
scalar abilene_network.client[1] 	interests_sent[1] 	1814
scalar abilene_network.client[2] 	hdistance[2] 	4
scalar abilene_network.client[2] 	downloads[2] 	1814
scalar abilene_network.client[2] 	avg_time[2] 	0.014248558664
scalar abilene_network.client[2] 	interests_sent[2] 	1814
scalar abilene_network.client[3] 	hdistance[3] 	3
scalar abilene_network.client[3] 	downloads[3] 	1764
scalar abilene_network.client[3] 	avg_time[3] 	0.0094
scalar abilene_network.client[3] 	interests_sent[3] 	1764
scalar abilene_network.client[4] 	hdistance[4] 	2
scalar abilene_network.client[4] 	downloads[4] 	1827
scalar abilene_network.client[4] 	avg_time[4] 	0.007637083019
scalar abilene_network.client[4] 	interests_sent[4] 	1827
scalar abilene_network.client[5] 	hdistance[5] 	1
scalar abilene_network.client[5] 	downloads[5] 	1800
scalar abilene_network.client[5] 	avg_time[5] 	0
scalar abilene_network.client[5] 	interests_sent[5] 	1800
scalar abilene_network.client[6] 	hdistance[6] 	2
scalar abilene_network.client[6] 	downloads[6] 	1761
scalar abilene_network.client[6] 	avg_time[6] 	0.002199894834
scalar abilene_network.client[6] 	interests_sent[6] 	1761
scalar abilene_network.client[7] 	hdistance[7] 	3
scalar abilene_network.client[7] 	downloads[7] 	1796
scalar abilene_network.client[7] 	avg_time[7] 	0.00802
scalar abilene_network.client[7] 	interests_sent[7] 	1796
scalar abilene_network.client[8] 	hdistance[8] 	4
scalar abilene_network.client[8] 	downloads[8] 	1792
scalar abilene_network.client[8] 	avg_time[8] 	0.01556
scalar abilene_network.client[8] 	interests_sent[8] 	1792
scalar abilene_network.client[9] 	hdistance[9] 	5
scalar abilene_network.client[9] 	downloads[9] 	1836
scalar abilene_network.client[9] 	avg_time[9] 	0.030274250482
scalar abilene_network.client[9] 	interests_sent[9] 	1836
scalar abilene_network.client[10] 	hdistance[10] 	6
scalar abilene_network.client[10] 	downloads[10] 	1840
scalar abilene_network.client[10] 	avg_time[10] 	0.030279999998
scalar abilene_network.client[10] 	interests_sent[10] 	1841
