version 2
run General-0-20150612-13:49:27-28762
attr D lce
attr F spr
attr R lru
attr a 1
attr configname General
attr datetime 20150612-13:49:27
attr experiment General
attr inifile omnetpp.ini
attr iterationvars "$net=abilene, $rep=0, $a=1, $F=spr, $ttl=1000, $D=lce, $R=lru, $window=60, $variance=0.05, $mytime=1800"
attr iterationvars2 "$net=abilene, $rep=0, $a=1, $F=spr, $ttl=1000, $D=lce, $R=lru, $window=60, $variance=0.05, $mytime=1800, $repetition=0"
attr measurement "$net=abilene, $rep=0, $a=1, $F=spr, $ttl=1000, $D=lce, $R=lru, $window=60, $variance=0.05, $mytime=1800"
attr mytime 1800
attr net abilene
attr network networks.${net=abilene}_network
attr processid 28762
attr rep 0
attr repetition 0
attr replication #0
attr resultdir results
attr runnumber 0
attr seedset 0
attr ttl 1000
attr variance 0.05
attr window 60

scalar . 	a 	1
scalar . 	mytime 	1800
scalar . 	rep 	0
scalar . 	ttl 	1000
scalar . 	variance 	0.05
scalar . 	window 	60
scalar abilene_network.content_distribution 	repo-0 	5
scalar abilene_network.content_distribution 	client-0 	8
scalar abilene_network.content_distribution 	client-1 	9
scalar abilene_network.content_distribution 	client-2 	5
scalar abilene_network.content_distribution 	client-3 	0
scalar abilene_network.content_distribution 	client-4 	1
scalar abilene_network.content_distribution 	client-5 	7
scalar abilene_network.content_distribution 	client-6 	6
scalar abilene_network.content_distribution 	client-7 	2
scalar abilene_network.content_distribution 	client-8 	4
scalar abilene_network.content_distribution 	client-9 	10
scalar abilene_network.content_distribution 	client-10 	3
scalar abilene_network.content_distribution 	repo-0_card 	10000
scalar abilene_network.content_distribution 	repo-0_price 	0
scalar abilene_network.statistics 	stabilization_time 	275.5
scalar abilene_network.statistics 	p_hit 	0.16442428337033
scalar abilene_network.statistics 	interests 	4709.5454545455
scalar abilene_network.statistics 	data 	2907.2727272727
scalar abilene_network.statistics 	hdistance 	2.1842957029049
scalar abilene_network.statistics 	avg_time 	0.009151473988
scalar abilene_network.statistics 	downloads 	19825
scalar abilene_network.statistics 	total_cost 	0
scalar abilene_network.statistics 	total_replicas 	10000
scalar abilene_network.statistics 	inner_hit 	0.42970996216898
scalar abilene_network.node[0].core_layer 	interests[0] 	1822
scalar abilene_network.node[0].core_layer 	data[0] 	1112
scalar abilene_network.node[0].core_layer 	repo_int[0] 	11306
scalar abilene_network.node[0].content_store 	p_hit[0] 	0.38968166849616
scalar abilene_network.node[0].content_store 	hits[0] 	710
scalar abilene_network.node[0].content_store 	misses[0] 	1112
scalar abilene_network.node[0].content_store 	decision_yes[0] 	1112
scalar abilene_network.node[0].content_store 	decision_no[0] 	0
scalar abilene_network.node[0].content_store 	decision_ratio[0] 	1
scalar abilene_network.node[1].core_layer 	interests[1] 	4040
scalar abilene_network.node[1].core_layer 	data[1] 	3199
scalar abilene_network.node[1].content_store 	p_hit[1] 	0.20816831683168
scalar abilene_network.node[1].content_store 	hits[1] 	841
scalar abilene_network.node[1].content_store 	misses[1] 	3199
scalar abilene_network.node[1].content_store 	decision_yes[1] 	3199
scalar abilene_network.node[1].content_store 	decision_no[1] 	0
scalar abilene_network.node[1].content_store 	decision_ratio[1] 	1
scalar abilene_network.node[2].core_layer 	interests[2] 	4946
scalar abilene_network.node[2].core_layer 	data[2] 	4223
scalar abilene_network.node[2].content_store 	p_hit[2] 	0.1461787302871
scalar abilene_network.node[2].content_store 	hits[2] 	723
scalar abilene_network.node[2].content_store 	misses[2] 	4223
scalar abilene_network.node[2].content_store 	decision_yes[2] 	4223
scalar abilene_network.node[2].content_store 	decision_no[2] 	0
scalar abilene_network.node[2].content_store 	decision_ratio[2] 	1
scalar abilene_network.node[3].core_layer 	interests[3] 	6035
scalar abilene_network.node[3].core_layer 	data[3] 	5294
scalar abilene_network.node[3].content_store 	p_hit[3] 	0.12278376139188
scalar abilene_network.node[3].content_store 	hits[3] 	741
scalar abilene_network.node[3].content_store 	misses[3] 	5294
scalar abilene_network.node[3].content_store 	decision_yes[3] 	5294
scalar abilene_network.node[3].content_store 	decision_no[3] 	0
scalar abilene_network.node[3].content_store 	decision_ratio[3] 	1
scalar abilene_network.node[4].core_layer 	interests[4] 	7054
scalar abilene_network.node[4].core_layer 	data[4] 	6321
scalar abilene_network.node[4].content_store 	p_hit[4] 	0.10391267366033
scalar abilene_network.node[4].content_store 	hits[4] 	733
scalar abilene_network.node[4].content_store 	misses[4] 	6321
scalar abilene_network.node[4].content_store 	decision_yes[4] 	6321
scalar abilene_network.node[4].content_store 	decision_no[4] 	0
scalar abilene_network.node[4].content_store 	decision_ratio[4] 	1
scalar abilene_network.node[5].core_layer 	interests[5] 	12427
scalar abilene_network.node[5].core_layer 	repo_load[5] 	11306
scalar abilene_network.node[5].core_layer 	data[5] 	0
scalar abilene_network.node[5].content_store 	p_hit[5] 	0.090206807757303
scalar abilene_network.node[5].content_store 	hits[5] 	1121
scalar abilene_network.node[5].content_store 	misses[5] 	11306
scalar abilene_network.node[5].content_store 	decision_yes[5] 	11306
scalar abilene_network.node[5].content_store 	decision_no[5] 	0
scalar abilene_network.node[5].content_store 	decision_ratio[5] 	1
scalar abilene_network.node[6].core_layer 	interests[6] 	4990
scalar abilene_network.node[6].core_layer 	data[6] 	4237
scalar abilene_network.node[6].content_store 	p_hit[6] 	0.15090180360721
scalar abilene_network.node[6].content_store 	hits[6] 	753
scalar abilene_network.node[6].content_store 	misses[6] 	4237
scalar abilene_network.node[6].content_store 	decision_yes[6] 	4237
scalar abilene_network.node[6].content_store 	decision_no[6] 	0
scalar abilene_network.node[6].content_store 	decision_ratio[6] 	1
scalar abilene_network.node[7].core_layer 	interests[7] 	3949
scalar abilene_network.node[7].core_layer 	data[7] 	3180
scalar abilene_network.node[7].content_store 	p_hit[7] 	0.19447961509243
scalar abilene_network.node[7].content_store 	hits[7] 	768
scalar abilene_network.node[7].content_store 	misses[7] 	3181
scalar abilene_network.node[7].content_store 	decision_yes[7] 	3180
scalar abilene_network.node[7].content_store 	decision_no[7] 	0
scalar abilene_network.node[7].content_store 	decision_ratio[7] 	1
scalar abilene_network.node[8].core_layer 	interests[8] 	2855
scalar abilene_network.node[8].core_layer 	data[8] 	2131
scalar abilene_network.node[8].content_store 	p_hit[8] 	0.25359019264448
scalar abilene_network.node[8].content_store 	hits[8] 	724
scalar abilene_network.node[8].content_store 	misses[8] 	2131
scalar abilene_network.node[8].content_store 	decision_yes[8] 	2131
scalar abilene_network.node[8].content_store 	decision_no[8] 	0
scalar abilene_network.node[8].content_store 	decision_ratio[8] 	1
scalar abilene_network.node[9].core_layer 	interests[9] 	1881
scalar abilene_network.node[9].core_layer 	data[9] 	1171
scalar abilene_network.node[9].content_store 	p_hit[9] 	0.37745879851143
scalar abilene_network.node[9].content_store 	hits[9] 	710
scalar abilene_network.node[9].content_store 	misses[9] 	1171
scalar abilene_network.node[9].content_store 	decision_yes[9] 	1171
scalar abilene_network.node[9].content_store 	decision_no[9] 	0
scalar abilene_network.node[9].content_store 	decision_ratio[9] 	1
scalar abilene_network.node[10].core_layer 	interests[10] 	1806
scalar abilene_network.node[10].core_layer 	data[10] 	1112
scalar abilene_network.node[10].content_store 	p_hit[10] 	0.38427464008859
scalar abilene_network.node[10].content_store 	hits[10] 	694
scalar abilene_network.node[10].content_store 	misses[10] 	1112
scalar abilene_network.node[10].content_store 	decision_yes[10] 	1112
scalar abilene_network.node[10].content_store 	decision_no[10] 	0
scalar abilene_network.node[10].content_store 	decision_ratio[10] 	1
scalar abilene_network.client[0] 	hdistance[0] 	3.2612513721186
scalar abilene_network.client[0] 	downloads[0] 	1822
scalar abilene_network.client[0] 	avg_time[0] 	0.017554576937
scalar abilene_network.client[1] 	hdistance[1] 	2.875
scalar abilene_network.client[1] 	downloads[1] 	1816
scalar abilene_network.client[1] 	avg_time[1] 	0.011899481922
scalar abilene_network.client[2] 	hdistance[2] 	2.429307384087
scalar abilene_network.client[2] 	downloads[2] 	1747
scalar abilene_network.client[2] 	avg_time[2] 	0.008828997838
scalar abilene_network.client[3] 	hdistance[3] 	1.9387417218543
scalar abilene_network.client[3] 	downloads[3] 	1812
scalar abilene_network.client[3] 	avg_time[3] 	0.006122582335
scalar abilene_network.client[4] 	hdistance[4] 	1.3494318181818
scalar abilene_network.client[4] 	downloads[4] 	1760
scalar abilene_network.client[4] 	avg_time[4] 	0.005378385925
scalar abilene_network.client[5] 	hdistance[5] 	0.74424826110219
scalar abilene_network.client[5] 	downloads[5] 	1869
scalar abilene_network.client[5] 	avg_time[5] 	0
scalar abilene_network.client[6] 	hdistance[6] 	1.2602209944751
scalar abilene_network.client[6] 	downloads[6] 	1810
scalar abilene_network.client[6] 	avg_time[6] 	0.001463424956
scalar abilene_network.client[7] 	hdistance[7] 	1.8113311331133
scalar abilene_network.client[7] 	downloads[7] 	1818
scalar abilene_network.client[7] 	avg_time[7] 	0.005096666218
scalar abilene_network.client[8] 	hdistance[8] 	2.2571258907363
scalar abilene_network.client[8] 	downloads[8] 	1684
scalar abilene_network.client[8] 	avg_time[8] 	0.009231781052
scalar abilene_network.client[9] 	hdistance[9] 	2.8043593833068
scalar abilene_network.client[9] 	downloads[9] 	1881
scalar abilene_network.client[9] 	avg_time[9] 	0.017904580695
scalar abilene_network.client[10] 	hdistance[10] 	3.296234772979
scalar abilene_network.client[10] 	downloads[10] 	1806
scalar abilene_network.client[10] 	avg_time[10] 	0.017185735991
