version 2
run General-4-20140902-16:17:12-17263
attr D costprobprodcorr0.01
attr F nrr
attr R lru
attr a 1
attr configname General
attr csize 1e3
attr ctlg 1e5
attr datetime 20140902-16:17:12
attr experiment General
attr inifile omnetpp.ini
attr iterationvars "$net=abilene_cost, $rep=7, $priceratiovalue=10, $weights=0.333_0.333_0.334, $lambda=100, $a=1, $ctlg=1e5, $F=nrr, $ttl=10, $D=costprobprodcorr0.01, $xi=1, $R=lru, $csize=1e3, $pricebits=0, $window=60, $variance=0.05, $mytime=1800"
attr iterationvars2 "$net=abilene_cost, $rep=7, $priceratiovalue=10, $weights=0.333_0.333_0.334, $lambda=100, $a=1, $ctlg=1e5, $F=nrr, $ttl=10, $D=costprobprodcorr0.01, $xi=1, $R=lru, $csize=1e3, $pricebits=0, $window=60, $variance=0.05, $mytime=1800, $repetition=0"
attr lambda 100
attr measurement "$net=abilene_cost, $rep=7, $priceratiovalue=10, $weights=0.333_0.333_0.334, $lambda=100, $a=1, $ctlg=1e5, $F=nrr, $ttl=10, $D=costprobprodcorr0.01, $xi=1, $R=lru, $csize=1e3, $pricebits=0, $window=60, $variance=0.05, $mytime=1800"
attr mytime 1800
attr net abilene_cost
attr network networks.${net=abilene_cost}_network
attr pricebits 0
attr priceratiovalue 10
attr processid 17263
attr rep 7
attr repetition 0
attr replication #0
attr resultdir results
attr runnumber 4
attr seedset 7
attr ttl 10
attr variance 0.05
attr weights 0.333_0.333_0.334
attr window 60
attr xi 1

scalar . 	a 	1
scalar . 	csize 	1e3
scalar . 	ctlg 	1e5
scalar . 	lambda 	100
scalar . 	mytime 	1800
scalar . 	pricebits 	0
scalar . 	priceratiovalue 	10
scalar . 	rep 	7
scalar . 	ttl 	10
scalar . 	variance 	0.05
scalar . 	window 	60
scalar . 	xi 	1
scalar abilene_cost_network.content_distribution 	repo-0 	5
scalar abilene_cost_network.content_distribution 	repo-1 	4
scalar abilene_cost_network.content_distribution 	repo-2 	0
scalar abilene_cost_network.content_distribution 	client-0 	6
scalar abilene_cost_network.content_distribution 	client-1 	4
scalar abilene_cost_network.content_distribution 	client-2 	8
scalar abilene_cost_network.content_distribution 	repo-0_card 	33104
scalar abilene_cost_network.content_distribution 	repo-0_price 	10
scalar abilene_cost_network.content_distribution 	repo-1_card 	33509
scalar abilene_cost_network.content_distribution 	repo-1_price 	0
scalar abilene_cost_network.content_distribution 	repo-2_card 	33387
scalar abilene_cost_network.content_distribution 	repo-2_price 	1
scalar abilene_cost_network.statistics 	repo_popularity[0] 	0.32830784336445
scalar abilene_cost_network.statistics 	repo_popularity[1] 	0.32988541312008
scalar abilene_cost_network.statistics 	repo_popularity[2] 	0.34180674351549
scalar abilene_cost_network.statistics 	stabilization_time 	36060
scalar abilene_cost_network.statistics 	p_hit 	0.1300731721768
scalar abilene_cost_network.statistics 	interests 	147298.90909091
scalar abilene_cost_network.statistics 	data 	98235.363636364
scalar abilene_cost_network.statistics 	hdistance 	2.6266096931144
scalar abilene_cost_network.statistics 	avg_time 	0.01110450681
scalar abilene_cost_network.statistics 	downloads 	534998
scalar abilene_cost_network.statistics 	total_cost 	857588
scalar abilene_cost_network.statistics 	total_replicas 	100000
scalar abilene_cost_network.statistics 	inner_hit 	0.3947061484342
scalar abilene_cost_network.statistics 	interests_sent 	539709
scalar abilene_cost_network.node[0].core_layer 	interests[0] 	88544
scalar abilene_cost_network.node[0].core_layer 	repo_load[0] 	70208
scalar abilene_cost_network.node[0].core_layer 	data[0] 	0
scalar abilene_cost_network.node[0].core_layer 	repo_int[0] 	323831
scalar abilene_cost_network.node[0].content_store 	p_hit[0] 	0.2070834839176
scalar abilene_cost_network.node[0].content_store 	hits[0] 	18336
scalar abilene_cost_network.node[0].content_store 	misses[0] 	70208
scalar abilene_cost_network.node[0].content_store 	decision_yes[0] 	181
scalar abilene_cost_network.node[0].content_store 	decision_no[0] 	70027
scalar abilene_cost_network.node[0].content_store 	decision_ratio[0] 	0.0025780537830447
scalar abilene_cost_network.node[0].content_store 	correction_factor[0] 	0.0027225701061802
scalar abilene_cost_network.node[0].content_store 	xi[0] 	1
scalar abilene_cost_network.node[1].core_layer 	interests[1] 	109151
scalar abilene_cost_network.node[1].core_layer 	data[1] 	88545
scalar abilene_cost_network.node[1].content_store 	p_hit[1] 	0.18880266786379
scalar abilene_cost_network.node[1].content_store 	hits[1] 	20608
scalar abilene_cost_network.node[1].content_store 	misses[1] 	88543
scalar abilene_cost_network.node[1].content_store 	decision_yes[1] 	211
scalar abilene_cost_network.node[1].content_store 	decision_no[1] 	88334
scalar abilene_cost_network.node[1].content_store 	decision_ratio[1] 	0.0023829691117511
scalar abilene_cost_network.node[1].content_store 	correction_factor[1] 	0.0027225701061802
scalar abilene_cost_network.node[1].content_store 	xi[1] 	1
scalar abilene_cost_network.node[2].core_layer 	interests[2] 	205517
scalar abilene_cost_network.node[2].core_layer 	data[2] 	182007
scalar abilene_cost_network.node[2].content_store 	p_hit[2] 	0.11357697903336
scalar abilene_cost_network.node[2].content_store 	hits[2] 	23342
scalar abilene_cost_network.node[2].content_store 	misses[2] 	182175
scalar abilene_cost_network.node[2].content_store 	decision_yes[2] 	196
scalar abilene_cost_network.node[2].content_store 	decision_no[2] 	181811
scalar abilene_cost_network.node[2].content_store 	decision_ratio[2] 	0.0010768816583978
scalar abilene_cost_network.node[2].content_store 	correction_factor[2] 	0.0027225701061802
scalar abilene_cost_network.node[2].content_store 	xi[2] 	1
scalar abilene_cost_network.node[3].core_layer 	interests[3] 	179558
scalar abilene_cost_network.node[3].core_layer 	data[3] 	163623
scalar abilene_cost_network.node[3].content_store 	p_hit[3] 	0.087754374631038
scalar abilene_cost_network.node[3].content_store 	hits[3] 	15757
scalar abilene_cost_network.node[3].content_store 	misses[3] 	163801
scalar abilene_cost_network.node[3].content_store 	decision_yes[3] 	125
scalar abilene_cost_network.node[3].content_store 	decision_no[3] 	163498
scalar abilene_cost_network.node[3].content_store 	decision_ratio[3] 	0.00076395127824328
scalar abilene_cost_network.node[3].content_store 	correction_factor[3] 	0.0027225701061802
scalar abilene_cost_network.node[3].content_store 	xi[3] 	1
scalar abilene_cost_network.node[4].core_layer 	interests[4] 	297094
scalar abilene_cost_network.node[4].core_layer 	repo_load[4] 	174885
scalar abilene_cost_network.node[4].core_layer 	data[4] 	111492
scalar abilene_cost_network.node[4].content_store 	p_hit[4] 	0.033588695833642
scalar abilene_cost_network.node[4].content_store 	hits[4] 	9979
scalar abilene_cost_network.node[4].content_store 	misses[4] 	287115
scalar abilene_cost_network.node[4].content_store 	decision_yes[4] 	785
scalar abilene_cost_network.node[4].content_store 	decision_no[4] 	285592
scalar abilene_cost_network.node[4].content_store 	decision_ratio[4] 	0.0027411419213135
scalar abilene_cost_network.node[4].content_store 	correction_factor[4] 	0.0027225701061802
scalar abilene_cost_network.node[4].content_store 	xi[4] 	1
scalar abilene_cost_network.node[5].core_layer 	interests[5] 	183799
scalar abilene_cost_network.node[5].core_layer 	repo_load[5] 	78738
scalar abilene_cost_network.node[5].core_layer 	data[5] 	59437
scalar abilene_cost_network.node[5].content_store 	p_hit[5] 	0.2482331242281
scalar abilene_cost_network.node[5].content_store 	hits[5] 	45625
scalar abilene_cost_network.node[5].content_store 	misses[5] 	138174
scalar abilene_cost_network.node[5].content_store 	decision_yes[5] 	2127
scalar abilene_cost_network.node[5].content_store 	decision_no[5] 	136048
scalar abilene_cost_network.node[5].content_store 	decision_ratio[5] 	0.015393522706713
scalar abilene_cost_network.node[5].content_store 	correction_factor[5] 	0.0027225701061802
scalar abilene_cost_network.node[5].content_store 	xi[5] 	1
scalar abilene_cost_network.node[6].core_layer 	interests[6] 	228293
scalar abilene_cost_network.node[6].core_layer 	data[6] 	204755
scalar abilene_cost_network.node[6].content_store 	p_hit[6] 	0.09499634241961
scalar abilene_cost_network.node[6].content_store 	hits[6] 	21687
scalar abilene_cost_network.node[6].content_store 	misses[6] 	206606
scalar abilene_cost_network.node[6].content_store 	decision_yes[6] 	1504
scalar abilene_cost_network.node[6].content_store 	decision_no[6] 	203251
scalar abilene_cost_network.node[6].content_store 	decision_ratio[6] 	0.0073453639715758
scalar abilene_cost_network.node[6].content_store 	correction_factor[6] 	0.0027225701061802
scalar abilene_cost_network.node[6].content_store 	xi[6] 	1
scalar abilene_cost_network.node[7].core_layer 	interests[7] 	130206
scalar abilene_cost_network.node[7].core_layer 	data[7] 	106417
scalar abilene_cost_network.node[7].content_store 	p_hit[7] 	0.18270279403407
scalar abilene_cost_network.node[7].content_store 	hits[7] 	23789
scalar abilene_cost_network.node[7].content_store 	misses[7] 	106417
scalar abilene_cost_network.node[7].content_store 	decision_yes[7] 	763
scalar abilene_cost_network.node[7].content_store 	decision_no[7] 	105654
scalar abilene_cost_network.node[7].content_store 	decision_ratio[7] 	0.007169907063721
scalar abilene_cost_network.node[7].content_store 	correction_factor[7] 	0.0027225701061802
scalar abilene_cost_network.node[7].content_store 	xi[7] 	1
scalar abilene_cost_network.node[8].core_layer 	interests[8] 	198126
scalar abilene_cost_network.node[8].core_layer 	data[8] 	164313
scalar abilene_cost_network.node[8].content_store 	p_hit[8] 	0.15966102379294
scalar abilene_cost_network.node[8].content_store 	hits[8] 	31633
scalar abilene_cost_network.node[8].content_store 	misses[8] 	166493
scalar abilene_cost_network.node[8].content_store 	decision_yes[8] 	785
scalar abilene_cost_network.node[8].content_store 	decision_no[8] 	163528
scalar abilene_cost_network.node[8].content_store 	decision_ratio[8] 	0.0047774673945458
scalar abilene_cost_network.node[8].content_store 	correction_factor[8] 	0.0027225701061802
scalar abilene_cost_network.node[8].content_store 	xi[8] 	1
scalar abilene_cost_network.node[9].core_layer 	interests[9] 	0
scalar abilene_cost_network.node[9].core_layer 	data[9] 	0
scalar abilene_cost_network.node[9].content_store 	p_hit[9] 	-nan
scalar abilene_cost_network.node[9].content_store 	hits[9] 	0
scalar abilene_cost_network.node[9].content_store 	misses[9] 	0
scalar abilene_cost_network.node[9].content_store 	decision_yes[9] 	0
scalar abilene_cost_network.node[9].content_store 	decision_no[9] 	0
scalar abilene_cost_network.node[9].content_store 	decision_ratio[9] 	0
scalar abilene_cost_network.node[9].content_store 	correction_factor[9] 	0.0027225701061802
scalar abilene_cost_network.node[9].content_store 	xi[9] 	1
scalar abilene_cost_network.node[10].core_layer 	interests[10] 	0
scalar abilene_cost_network.node[10].core_layer 	data[10] 	0
scalar abilene_cost_network.node[10].content_store 	p_hit[10] 	-nan
scalar abilene_cost_network.node[10].content_store 	hits[10] 	0
scalar abilene_cost_network.node[10].content_store 	misses[10] 	0
scalar abilene_cost_network.node[10].content_store 	decision_yes[10] 	0
scalar abilene_cost_network.node[10].content_store 	decision_no[10] 	0
scalar abilene_cost_network.node[10].content_store 	decision_ratio[10] 	0
scalar abilene_cost_network.node[10].content_store 	correction_factor[10] 	0.0027225701061802
scalar abilene_cost_network.node[10].content_store 	xi[10] 	1
scalar abilene_cost_network.client[4] 	hdistance[4] 	1.9918994523021
scalar abilene_cost_network.client[4] 	downloads[4] 	178383
scalar abilene_cost_network.client[4] 	avg_time[4] 	0.007576546972
scalar abilene_cost_network.client[4] 	interests_sent[4] 	179121
scalar abilene_cost_network.client[6] 	hdistance[6] 	2.8234858681023
scalar abilene_cost_network.client[6] 	downloads[6] 	178320
scalar abilene_cost_network.client[6] 	avg_time[6] 	0.011814094295
scalar abilene_cost_network.client[6] 	interests_sent[6] 	180113
scalar abilene_cost_network.client[8] 	hdistance[8] 	3.0644437589388
scalar abilene_cost_network.client[8] 	downloads[8] 	178295
scalar abilene_cost_network.client[8] 	avg_time[8] 	0.013922879163
scalar abilene_cost_network.client[8] 	interests_sent[8] 	180475
