version 2
run General-16-20140902-16:36:31-17316
attr D costprobprodcorr0.01
attr F nrr
attr R lru
attr a 1
attr configname General
attr csize 1e3
attr ctlg 1e5
attr datetime 20140902-16:36:31
attr experiment General
attr inifile omnetpp.ini
attr iterationvars "$net=abilene_cost, $rep=10, $priceratiovalue=10, $weights=0.333_0.333_0.334, $lambda=100, $a=1, $ctlg=1e5, $F=nrr, $ttl=10, $D=costprobprodcorr0.01, $xi=1, $R=lru, $csize=1e3, $pricebits=0, $window=60, $variance=0.05, $mytime=1800"
attr iterationvars2 "$net=abilene_cost, $rep=10, $priceratiovalue=10, $weights=0.333_0.333_0.334, $lambda=100, $a=1, $ctlg=1e5, $F=nrr, $ttl=10, $D=costprobprodcorr0.01, $xi=1, $R=lru, $csize=1e3, $pricebits=0, $window=60, $variance=0.05, $mytime=1800, $repetition=0"
attr lambda 100
attr measurement "$net=abilene_cost, $rep=10, $priceratiovalue=10, $weights=0.333_0.333_0.334, $lambda=100, $a=1, $ctlg=1e5, $F=nrr, $ttl=10, $D=costprobprodcorr0.01, $xi=1, $R=lru, $csize=1e3, $pricebits=0, $window=60, $variance=0.05, $mytime=1800"
attr mytime 1800
attr net abilene_cost
attr network networks.${net=abilene_cost}_network
attr pricebits 0
attr priceratiovalue 10
attr processid 17316
attr rep 10
attr repetition 0
attr replication #0
attr resultdir results
attr runnumber 16
attr seedset 10
attr ttl 10
attr variance 0.05
attr weights 0.333_0.333_0.334
attr window 60
attr xi 1

scalar . 	a 	1
scalar . 	csize 	1e3
scalar . 	ctlg 	1e5
scalar . 	lambda 	100
scalar . 	mytime 	1800
scalar . 	pricebits 	0
scalar . 	priceratiovalue 	10
scalar . 	rep 	10
scalar . 	ttl 	10
scalar . 	variance 	0.05
scalar . 	window 	60
scalar . 	xi 	1
scalar abilene_cost_network.content_distribution 	repo-0 	2
scalar abilene_cost_network.content_distribution 	repo-1 	7
scalar abilene_cost_network.content_distribution 	repo-2 	0
scalar abilene_cost_network.content_distribution 	client-0 	7
scalar abilene_cost_network.content_distribution 	client-1 	10
scalar abilene_cost_network.content_distribution 	client-2 	6
scalar abilene_cost_network.content_distribution 	repo-0_card 	33054
scalar abilene_cost_network.content_distribution 	repo-0_price 	1
scalar abilene_cost_network.content_distribution 	repo-1_card 	33533
scalar abilene_cost_network.content_distribution 	repo-1_price 	0
scalar abilene_cost_network.content_distribution 	repo-2_card 	33413
scalar abilene_cost_network.content_distribution 	repo-2_price 	10
scalar abilene_cost_network.statistics 	repo_popularity[0] 	0.39235916228158
scalar abilene_cost_network.statistics 	repo_popularity[1] 	0.27346308917966
scalar abilene_cost_network.statistics 	repo_popularity[2] 	0.33417774853877
scalar abilene_cost_network.statistics 	stabilization_time 	36060
scalar abilene_cost_network.statistics 	p_hit 	0.14379916337532
scalar abilene_cost_network.statistics 	interests 	140151.90909091
scalar abilene_cost_network.statistics 	data 	91028.545454545
scalar abilene_cost_network.statistics 	hdistance 	2.4623469193861
scalar abilene_cost_network.statistics 	avg_time 	0.012418131736
scalar abilene_cost_network.statistics 	downloads 	536425
scalar abilene_cost_network.statistics 	total_cost 	861565
scalar abilene_cost_network.statistics 	total_replicas 	100000
scalar abilene_cost_network.statistics 	inner_hit 	0.41653166798714
scalar abilene_cost_network.statistics 	interests_sent 	540359
scalar abilene_cost_network.node[0].core_layer 	interests[0] 	110809
scalar abilene_cost_network.node[0].core_layer 	repo_load[0] 	77340
scalar abilene_cost_network.node[0].core_layer 	data[0] 	0
scalar abilene_cost_network.node[0].core_layer 	repo_int[0] 	312987
scalar abilene_cost_network.node[0].content_store 	p_hit[0] 	0.3020422528856
scalar abilene_cost_network.node[0].content_store 	hits[0] 	33469
scalar abilene_cost_network.node[0].content_store 	misses[0] 	77340
scalar abilene_cost_network.node[0].content_store 	decision_yes[0] 	2157
scalar abilene_cost_network.node[0].content_store 	decision_no[0] 	75183
scalar abilene_cost_network.node[0].content_store 	decision_ratio[0] 	0.02788983708301
scalar abilene_cost_network.node[0].content_store 	correction_factor[0] 	0.0027225701061802
scalar abilene_cost_network.node[0].content_store 	xi[0] 	1
scalar abilene_cost_network.node[1].core_layer 	interests[1] 	127014
scalar abilene_cost_network.node[1].core_layer 	data[1] 	117101
scalar abilene_cost_network.node[1].content_store 	p_hit[1] 	0.078054387705292
scalar abilene_cost_network.node[1].content_store 	hits[1] 	9914
scalar abilene_cost_network.node[1].content_store 	misses[1] 	117100
scalar abilene_cost_network.node[1].content_store 	decision_yes[1] 	1413
scalar abilene_cost_network.node[1].content_store 	decision_no[1] 	115688
scalar abilene_cost_network.node[1].content_store 	decision_ratio[1] 	0.012066506690805
scalar abilene_cost_network.node[1].content_store 	correction_factor[1] 	0.0027225701061802
scalar abilene_cost_network.node[1].content_store 	xi[1] 	1
scalar abilene_cost_network.node[2].core_layer 	interests[2] 	210521
scalar abilene_cost_network.node[2].core_layer 	repo_load[2] 	88165
scalar abilene_cost_network.node[2].core_layer 	data[2] 	75794
scalar abilene_cost_network.node[2].content_store 	p_hit[2] 	0.22117983479083
scalar abilene_cost_network.node[2].content_store 	hits[2] 	46563
scalar abilene_cost_network.node[2].content_store 	misses[2] 	163958
scalar abilene_cost_network.node[2].content_store 	decision_yes[2] 	1555
scalar abilene_cost_network.node[2].content_store 	decision_no[2] 	162404
scalar abilene_cost_network.node[2].content_store 	decision_ratio[2] 	0.0094840783366573
scalar abilene_cost_network.node[2].content_store 	correction_factor[2] 	0.0027225701061802
scalar abilene_cost_network.node[2].content_store 	xi[2] 	1
scalar abilene_cost_network.node[3].core_layer 	interests[3] 	180650
scalar abilene_cost_network.node[3].core_layer 	data[3] 	164179
scalar abilene_cost_network.node[3].content_store 	p_hit[3] 	0.091181843343482
scalar abilene_cost_network.node[3].content_store 	hits[3] 	16472
scalar abilene_cost_network.node[3].content_store 	misses[3] 	164178
scalar abilene_cost_network.node[3].content_store 	decision_yes[3] 	1525
scalar abilene_cost_network.node[3].content_store 	decision_no[3] 	162654
scalar abilene_cost_network.node[3].content_store 	decision_ratio[3] 	0.0092886422745905
scalar abilene_cost_network.node[3].content_store 	correction_factor[3] 	0.0027225701061802
scalar abilene_cost_network.node[3].content_store 	xi[3] 	1
scalar abilene_cost_network.node[4].core_layer 	interests[4] 	0
scalar abilene_cost_network.node[4].core_layer 	data[4] 	0
scalar abilene_cost_network.node[4].content_store 	p_hit[4] 	-nan
scalar abilene_cost_network.node[4].content_store 	hits[4] 	0
scalar abilene_cost_network.node[4].content_store 	misses[4] 	0
scalar abilene_cost_network.node[4].content_store 	decision_yes[4] 	0
scalar abilene_cost_network.node[4].content_store 	decision_no[4] 	0
scalar abilene_cost_network.node[4].content_store 	decision_ratio[4] 	0
scalar abilene_cost_network.node[4].content_store 	correction_factor[4] 	0.0027225701061802
scalar abilene_cost_network.node[4].content_store 	xi[4] 	1
scalar abilene_cost_network.node[5].core_layer 	interests[5] 	0
scalar abilene_cost_network.node[5].core_layer 	data[5] 	0
scalar abilene_cost_network.node[5].content_store 	p_hit[5] 	-nan
scalar abilene_cost_network.node[5].content_store 	hits[5] 	0
scalar abilene_cost_network.node[5].content_store 	misses[5] 	0
scalar abilene_cost_network.node[5].content_store 	decision_yes[5] 	0
scalar abilene_cost_network.node[5].content_store 	decision_no[5] 	0
scalar abilene_cost_network.node[5].content_store 	decision_ratio[5] 	0
scalar abilene_cost_network.node[5].content_store 	correction_factor[5] 	0.0027225701061802
scalar abilene_cost_network.node[5].content_store 	xi[5] 	1
scalar abilene_cost_network.node[6].core_layer 	interests[6] 	201716
scalar abilene_cost_network.node[6].core_layer 	data[6] 	155263
scalar abilene_cost_network.node[6].content_store 	p_hit[6] 	0.22373039322612
scalar abilene_cost_network.node[6].content_store 	hits[6] 	45130
scalar abilene_cost_network.node[6].content_store 	misses[6] 	156586
scalar abilene_cost_network.node[6].content_store 	decision_yes[6] 	710
scalar abilene_cost_network.node[6].content_store 	decision_no[6] 	154553
scalar abilene_cost_network.node[6].content_store 	decision_ratio[6] 	0.0045728860063248
scalar abilene_cost_network.node[6].content_store 	correction_factor[6] 	0.0027225701061802
scalar abilene_cost_network.node[6].content_store 	xi[6] 	1
scalar abilene_cost_network.node[7].core_layer 	interests[7] 	391151
scalar abilene_cost_network.node[7].core_layer 	repo_load[7] 	147482
scalar abilene_cost_network.node[7].core_layer 	data[7] 	212609
scalar abilene_cost_network.node[7].content_store 	p_hit[7] 	0.070371800148792
scalar abilene_cost_network.node[7].content_store 	hits[7] 	27526
scalar abilene_cost_network.node[7].content_store 	misses[7] 	363625
scalar abilene_cost_network.node[7].content_store 	decision_yes[7] 	1550
scalar abilene_cost_network.node[7].content_store 	decision_no[7] 	358541
scalar abilene_cost_network.node[7].content_store 	decision_ratio[7] 	0.004304467481831
scalar abilene_cost_network.node[7].content_store 	correction_factor[7] 	0.0027225701061802
scalar abilene_cost_network.node[7].content_store 	xi[7] 	1
scalar abilene_cost_network.node[8].core_layer 	interests[8] 	64939
scalar abilene_cost_network.node[8].core_layer 	data[8] 	64939
scalar abilene_cost_network.node[8].content_store 	p_hit[8] 	0
scalar abilene_cost_network.node[8].content_store 	hits[8] 	0
scalar abilene_cost_network.node[8].content_store 	misses[8] 	64939
scalar abilene_cost_network.node[8].content_store 	decision_yes[8] 	0
scalar abilene_cost_network.node[8].content_store 	decision_no[8] 	64939
scalar abilene_cost_network.node[8].content_store 	decision_ratio[8] 	0
scalar abilene_cost_network.node[8].content_store 	correction_factor[8] 	0.0027225701061802
scalar abilene_cost_network.node[8].content_store 	xi[8] 	1
scalar abilene_cost_network.node[9].core_layer 	interests[9] 	64939
scalar abilene_cost_network.node[9].core_layer 	data[9] 	64939
scalar abilene_cost_network.node[9].content_store 	p_hit[9] 	0
scalar abilene_cost_network.node[9].content_store 	hits[9] 	0
scalar abilene_cost_network.node[9].content_store 	misses[9] 	64939
scalar abilene_cost_network.node[9].content_store 	decision_yes[9] 	0
scalar abilene_cost_network.node[9].content_store 	decision_no[9] 	64939
scalar abilene_cost_network.node[9].content_store 	decision_ratio[9] 	0
scalar abilene_cost_network.node[9].content_store 	correction_factor[9] 	0.0027225701061802
scalar abilene_cost_network.node[9].content_store 	xi[9] 	1
scalar abilene_cost_network.node[10].core_layer 	interests[10] 	189932
scalar abilene_cost_network.node[10].core_layer 	data[10] 	146490
scalar abilene_cost_network.node[10].content_store 	p_hit[10] 	0.22438030453004
scalar abilene_cost_network.node[10].content_store 	hits[10] 	42617
scalar abilene_cost_network.node[10].content_store 	misses[10] 	147315
scalar abilene_cost_network.node[10].content_store 	decision_yes[10] 	832
scalar abilene_cost_network.node[10].content_store 	decision_no[10] 	145658
scalar abilene_cost_network.node[10].content_store 	decision_ratio[10] 	0.0056795685712335
scalar abilene_cost_network.node[10].content_store 	correction_factor[10] 	0.0027225701061802
scalar abilene_cost_network.node[10].content_store 	xi[10] 	1
scalar abilene_cost_network.client[6] 	hdistance[6] 	2.9163425107351
scalar abilene_cost_network.client[6] 	downloads[6] 	178155
scalar abilene_cost_network.client[6] 	avg_time[6] 	0.013789840289
scalar abilene_cost_network.client[6] 	interests_sent[6] 	179478
scalar abilene_cost_network.client[7] 	hdistance[7] 	2.1826211399566
scalar abilene_cost_network.client[7] 	downloads[7] 	178884
scalar abilene_cost_network.client[7] 	avg_time[7] 	0.009495769839
scalar abilene_cost_network.client[7] 	interests_sent[7] 	180670
scalar abilene_cost_network.client[10] 	hdistance[10] 	2.2880771074665
scalar abilene_cost_network.client[10] 	downloads[10] 	179386
scalar abilene_cost_network.client[10] 	avg_time[10] 	0.013968785081
scalar abilene_cost_network.client[10] 	interests_sent[10] 	180211
