version 2
run General-0-20140902-15:22:40-27539
attr D costprobprodcorr0.01
attr F nrr
attr R lru
attr a 1
attr configname General
attr csize 1e3
attr ctlg 1e5
attr datetime 20140902-15:22:40
attr experiment General
attr inifile omnetpp.ini
attr iterationvars "$net=abilene_cost, $rep=11, $priceratiovalue=10, $weights=0.333_0.333_0.334, $lambda=100, $a=1, $ctlg=1e5, $F=nrr, $ttl=10, $D=costprobprodcorr0.01, $xi=1, $R=lru, $csize=1e3, $pricebits=0, $window=60, $variance=0.05, $mytime=1800"
attr iterationvars2 "$net=abilene_cost, $rep=11, $priceratiovalue=10, $weights=0.333_0.333_0.334, $lambda=100, $a=1, $ctlg=1e5, $F=nrr, $ttl=10, $D=costprobprodcorr0.01, $xi=1, $R=lru, $csize=1e3, $pricebits=0, $window=60, $variance=0.05, $mytime=1800, $repetition=0"
attr lambda 100
attr measurement "$net=abilene_cost, $rep=11, $priceratiovalue=10, $weights=0.333_0.333_0.334, $lambda=100, $a=1, $ctlg=1e5, $F=nrr, $ttl=10, $D=costprobprodcorr0.01, $xi=1, $R=lru, $csize=1e3, $pricebits=0, $window=60, $variance=0.05, $mytime=1800"
attr mytime 1800
attr net abilene_cost
attr network networks.${net=abilene_cost}_network
attr pricebits 0
attr priceratiovalue 10
attr processid 27539
attr rep 11
attr repetition 0
attr replication #0
attr resultdir results
attr runnumber 0
attr seedset 11
attr ttl 10
attr variance 0.05
attr weights 0.333_0.333_0.334
attr window 60
attr xi 1

scalar . 	a 	1
scalar . 	csize 	1e3
scalar . 	ctlg 	1e5
scalar . 	lambda 	100
scalar . 	mytime 	1800
scalar . 	pricebits 	0
scalar . 	priceratiovalue 	10
scalar . 	rep 	11
scalar . 	ttl 	10
scalar . 	variance 	0.05
scalar . 	window 	60
scalar . 	xi 	1
scalar abilene_cost_network.content_distribution 	repo-0 	1
scalar abilene_cost_network.content_distribution 	repo-1 	10
scalar abilene_cost_network.content_distribution 	repo-2 	9
scalar abilene_cost_network.content_distribution 	client-0 	4
scalar abilene_cost_network.content_distribution 	client-1 	3
scalar abilene_cost_network.content_distribution 	client-2 	5
scalar abilene_cost_network.content_distribution 	repo-0_card 	33091
scalar abilene_cost_network.content_distribution 	repo-0_price 	10
scalar abilene_cost_network.content_distribution 	repo-1_card 	33552
scalar abilene_cost_network.content_distribution 	repo-1_price 	1
scalar abilene_cost_network.content_distribution 	repo-2_card 	33357
scalar abilene_cost_network.content_distribution 	repo-2_price 	0
scalar abilene_cost_network.statistics 	repo_popularity[0] 	0.34138276193578
scalar abilene_cost_network.statistics 	repo_popularity[1] 	0.30435585390103
scalar abilene_cost_network.statistics 	repo_popularity[2] 	0.3542613841632
scalar abilene_cost_network.statistics 	stabilization_time 	36060
scalar abilene_cost_network.statistics 	p_hit 	0.089300075429011
scalar abilene_cost_network.statistics 	interests 	189341.18181818
scalar abilene_cost_network.statistics 	data 	140324.63636364
scalar abilene_cost_network.statistics 	hdistance 	3.564843479133
scalar abilene_cost_network.statistics 	avg_time 	0.018578591683
scalar abilene_cost_network.statistics 	downloads 	533517
scalar abilene_cost_network.statistics 	total_cost 	851791
scalar abilene_cost_network.statistics 	total_replicas 	100000
scalar abilene_cost_network.statistics 	inner_hit 	0.35902323637297
scalar abilene_cost_network.statistics 	interests_sent 	539184
scalar abilene_cost_network.node[0].core_layer 	interests[0] 	0
scalar abilene_cost_network.node[0].core_layer 	data[0] 	0
scalar abilene_cost_network.node[0].core_layer 	repo_int[0] 	341972
scalar abilene_cost_network.node[0].content_store 	p_hit[0] 	-nan
scalar abilene_cost_network.node[0].content_store 	hits[0] 	0
scalar abilene_cost_network.node[0].content_store 	misses[0] 	0
scalar abilene_cost_network.node[0].content_store 	decision_yes[0] 	0
scalar abilene_cost_network.node[0].content_store 	decision_no[0] 	0
scalar abilene_cost_network.node[0].content_store 	decision_ratio[0] 	0
scalar abilene_cost_network.node[0].content_store 	correction_factor[0] 	0.0027225701061802
scalar abilene_cost_network.node[0].content_store 	xi[0] 	1
scalar abilene_cost_network.node[1].core_layer 	interests[1] 	206767
scalar abilene_cost_network.node[1].core_layer 	repo_load[1] 	76934
scalar abilene_cost_network.node[1].core_layer 	data[1] 	103701
scalar abilene_cost_network.node[1].content_store 	p_hit[1] 	0.12637896763023
scalar abilene_cost_network.node[1].content_store 	hits[1] 	26131
scalar abilene_cost_network.node[1].content_store 	misses[1] 	180636
scalar abilene_cost_network.node[1].content_store 	decision_yes[1] 	2335
scalar abilene_cost_network.node[1].content_store 	decision_no[1] 	178300
scalar abilene_cost_network.node[1].content_store 	decision_ratio[1] 	0.012926619979517
scalar abilene_cost_network.node[1].content_store 	correction_factor[1] 	0.0027225701061802
scalar abilene_cost_network.node[1].content_store 	xi[1] 	1
scalar abilene_cost_network.node[2].core_layer 	interests[2] 	355070
scalar abilene_cost_network.node[2].core_layer 	data[2] 	329369
scalar abilene_cost_network.node[2].content_store 	p_hit[2] 	0.072382910412031
scalar abilene_cost_network.node[2].content_store 	hits[2] 	25701
scalar abilene_cost_network.node[2].content_store 	misses[2] 	329369
scalar abilene_cost_network.node[2].content_store 	decision_yes[2] 	2367
scalar abilene_cost_network.node[2].content_store 	decision_no[2] 	327002
scalar abilene_cost_network.node[2].content_store 	decision_ratio[2] 	0.0071864686719151
scalar abilene_cost_network.node[2].content_store 	correction_factor[2] 	0.0027225701061802
scalar abilene_cost_network.node[2].content_store 	xi[2] 	1
scalar abilene_cost_network.node[3].core_layer 	interests[3] 	416598
scalar abilene_cost_network.node[3].core_layer 	data[3] 	383213
scalar abilene_cost_network.node[3].content_store 	p_hit[3] 	0.069599469992655
scalar abilene_cost_network.node[3].content_store 	hits[3] 	28995
scalar abilene_cost_network.node[3].content_store 	misses[3] 	387603
scalar abilene_cost_network.node[3].content_store 	decision_yes[3] 	2274
scalar abilene_cost_network.node[3].content_store 	decision_no[3] 	380939
scalar abilene_cost_network.node[3].content_store 	decision_ratio[3] 	0.0059340366845592
scalar abilene_cost_network.node[3].content_store 	correction_factor[3] 	0.0027225701061802
scalar abilene_cost_network.node[3].content_store 	xi[3] 	1
scalar abilene_cost_network.node[4].core_layer 	interests[4] 	317932
scalar abilene_cost_network.node[4].core_layer 	data[4] 	248250
scalar abilene_cost_network.node[4].content_store 	p_hit[4] 	0.2133129096788
scalar abilene_cost_network.node[4].content_store 	hits[4] 	67819
scalar abilene_cost_network.node[4].content_store 	misses[4] 	250113
scalar abilene_cost_network.node[4].content_store 	decision_yes[4] 	1529
scalar abilene_cost_network.node[4].content_store 	decision_no[4] 	246721
scalar abilene_cost_network.node[4].content_store 	decision_ratio[4] 	0.006159113796576
scalar abilene_cost_network.node[4].content_store 	correction_factor[4] 	0.0027225701061802
scalar abilene_cost_network.node[4].content_store 	xi[4] 	1
scalar abilene_cost_network.node[5].core_layer 	interests[5] 	190398
scalar abilene_cost_network.node[5].core_layer 	data[5] 	171716
scalar abilene_cost_network.node[5].content_store 	p_hit[5] 	0.084528198825618
scalar abilene_cost_network.node[5].content_store 	hits[5] 	16094
scalar abilene_cost_network.node[5].content_store 	misses[5] 	174304
scalar abilene_cost_network.node[5].content_store 	decision_yes[5] 	794
scalar abilene_cost_network.node[5].content_store 	decision_no[5] 	170922
scalar abilene_cost_network.node[5].content_store 	decision_ratio[5] 	0.0046239139043537
scalar abilene_cost_network.node[5].content_store 	correction_factor[5] 	0.0027225701061802
scalar abilene_cost_network.node[5].content_store 	xi[5] 	1
scalar abilene_cost_network.node[6].core_layer 	interests[6] 	62366
scalar abilene_cost_network.node[6].core_layer 	data[6] 	62367
scalar abilene_cost_network.node[6].content_store 	p_hit[6] 	0
scalar abilene_cost_network.node[6].content_store 	hits[6] 	0
scalar abilene_cost_network.node[6].content_store 	misses[6] 	62366
scalar abilene_cost_network.node[6].content_store 	decision_yes[6] 	0
scalar abilene_cost_network.node[6].content_store 	decision_no[6] 	62367
scalar abilene_cost_network.node[6].content_store 	decision_ratio[6] 	0
scalar abilene_cost_network.node[6].content_store 	correction_factor[6] 	0.0027225701061802
scalar abilene_cost_network.node[6].content_store 	xi[6] 	1
scalar abilene_cost_network.node[7].core_layer 	interests[7] 	62366
scalar abilene_cost_network.node[7].core_layer 	data[7] 	62367
scalar abilene_cost_network.node[7].content_store 	p_hit[7] 	0
scalar abilene_cost_network.node[7].content_store 	hits[7] 	0
scalar abilene_cost_network.node[7].content_store 	misses[7] 	62366
scalar abilene_cost_network.node[7].content_store 	decision_yes[7] 	0
scalar abilene_cost_network.node[7].content_store 	decision_no[7] 	62367
scalar abilene_cost_network.node[7].content_store 	decision_ratio[7] 	0
scalar abilene_cost_network.node[7].content_store 	correction_factor[7] 	0.0027225701061802
scalar abilene_cost_network.node[7].content_store 	xi[7] 	1
scalar abilene_cost_network.node[8].core_layer 	interests[8] 	184968
scalar abilene_cost_network.node[8].core_layer 	data[8] 	182588
scalar abilene_cost_network.node[8].content_store 	p_hit[8] 	0
scalar abilene_cost_network.node[8].content_store 	hits[8] 	0
scalar abilene_cost_network.node[8].content_store 	misses[8] 	184968
scalar abilene_cost_network.node[8].content_store 	decision_yes[8] 	0
scalar abilene_cost_network.node[8].content_store 	decision_no[8] 	182588
scalar abilene_cost_network.node[8].content_store 	decision_ratio[8] 	0
scalar abilene_cost_network.node[8].content_store 	correction_factor[8] 	0.0027225701061802
scalar abilene_cost_network.node[8].content_store 	xi[8] 	1
scalar abilene_cost_network.node[9].core_layer 	interests[9] 	182587
scalar abilene_cost_network.node[9].core_layer 	repo_load[9] 	182587
scalar abilene_cost_network.node[9].core_layer 	data[9] 	0
scalar abilene_cost_network.node[9].content_store 	p_hit[9] 	0
scalar abilene_cost_network.node[9].content_store 	hits[9] 	0
scalar abilene_cost_network.node[9].content_store 	misses[9] 	182587
scalar abilene_cost_network.node[9].content_store 	decision_yes[9] 	0
scalar abilene_cost_network.node[9].content_store 	decision_no[9] 	182587
scalar abilene_cost_network.node[9].content_store 	decision_ratio[9] 	0
scalar abilene_cost_network.node[9].content_store 	correction_factor[9] 	0.0027225701061802
scalar abilene_cost_network.node[9].content_store 	xi[9] 	1
scalar abilene_cost_network.node[10].core_layer 	interests[10] 	103701
scalar abilene_cost_network.node[10].core_layer 	repo_load[10] 	82451
scalar abilene_cost_network.node[10].core_layer 	data[10] 	0
scalar abilene_cost_network.node[10].content_store 	p_hit[10] 	0.20491605674005
scalar abilene_cost_network.node[10].content_store 	hits[10] 	21250
scalar abilene_cost_network.node[10].content_store 	misses[10] 	82451
scalar abilene_cost_network.node[10].content_store 	decision_yes[10] 	228
scalar abilene_cost_network.node[10].content_store 	decision_no[10] 	82223
scalar abilene_cost_network.node[10].content_store 	decision_ratio[10] 	0.0027652787716341
scalar abilene_cost_network.node[10].content_store 	correction_factor[10] 	0.0027225701061802
scalar abilene_cost_network.node[10].content_store 	xi[10] 	1
scalar abilene_cost_network.client[3] 	hdistance[3] 	2.906992203344
scalar abilene_cost_network.client[3] 	downloads[3] 	177512
scalar abilene_cost_network.client[3] 	avg_time[3] 	0.016035527622
scalar abilene_cost_network.client[3] 	interests_sent[3] 	179100
scalar abilene_cost_network.client[4] 	hdistance[4] 	3.5869079285603
scalar abilene_cost_network.client[4] 	downloads[4] 	178948
scalar abilene_cost_network.client[4] 	avg_time[4] 	0.017227930649
scalar abilene_cost_network.client[4] 	interests_sent[4] 	180439
scalar abilene_cost_network.client[5] 	hdistance[5] 	4.2006303054948
scalar abilene_cost_network.client[5] 	downloads[5] 	177057
scalar abilene_cost_network.client[5] 	avg_time[5] 	0.022472316778
scalar abilene_cost_network.client[5] 	interests_sent[5] 	179645
