version 2
run General-12-20140902-15:57:23-17331
attr D costprobprodcorr0.01
attr F nrr
attr R lru
attr a 1
attr configname General
attr csize 1e3
attr ctlg 1e5
attr datetime 20140902-15:57:23
attr experiment General
attr inifile omnetpp.ini
attr iterationvars "$net=abilene_cost, $rep=4, $priceratiovalue=10, $weights=0.333_0.333_0.334, $lambda=100, $a=1, $ctlg=1e5, $F=nrr, $ttl=10, $D=costprobprodcorr0.01, $xi=1, $R=lru, $csize=1e3, $pricebits=0, $window=60, $variance=0.05, $mytime=1800"
attr iterationvars2 "$net=abilene_cost, $rep=4, $priceratiovalue=10, $weights=0.333_0.333_0.334, $lambda=100, $a=1, $ctlg=1e5, $F=nrr, $ttl=10, $D=costprobprodcorr0.01, $xi=1, $R=lru, $csize=1e3, $pricebits=0, $window=60, $variance=0.05, $mytime=1800, $repetition=0"
attr lambda 100
attr measurement "$net=abilene_cost, $rep=4, $priceratiovalue=10, $weights=0.333_0.333_0.334, $lambda=100, $a=1, $ctlg=1e5, $F=nrr, $ttl=10, $D=costprobprodcorr0.01, $xi=1, $R=lru, $csize=1e3, $pricebits=0, $window=60, $variance=0.05, $mytime=1800"
attr mytime 1800
attr net abilene_cost
attr network networks.${net=abilene_cost}_network
attr pricebits 0
attr priceratiovalue 10
attr processid 17331
attr rep 4
attr repetition 0
attr replication #0
attr resultdir results
attr runnumber 12
attr seedset 4
attr ttl 10
attr variance 0.05
attr weights 0.333_0.333_0.334
attr window 60
attr xi 1

scalar . 	a 	1
scalar . 	csize 	1e3
scalar . 	ctlg 	1e5
scalar . 	lambda 	100
scalar . 	mytime 	1800
scalar . 	pricebits 	0
scalar . 	priceratiovalue 	10
scalar . 	rep 	4
scalar . 	ttl 	10
scalar . 	variance 	0.05
scalar . 	window 	60
scalar . 	xi 	1
scalar abilene_cost_network.content_distribution 	repo-0 	2
scalar abilene_cost_network.content_distribution 	repo-1 	0
scalar abilene_cost_network.content_distribution 	repo-2 	10
scalar abilene_cost_network.content_distribution 	client-0 	6
scalar abilene_cost_network.content_distribution 	client-1 	2
scalar abilene_cost_network.content_distribution 	client-2 	4
scalar abilene_cost_network.content_distribution 	repo-0_card 	33274
scalar abilene_cost_network.content_distribution 	repo-0_price 	0
scalar abilene_cost_network.content_distribution 	repo-1_card 	33153
scalar abilene_cost_network.content_distribution 	repo-1_price 	1
scalar abilene_cost_network.content_distribution 	repo-2_card 	33573
scalar abilene_cost_network.content_distribution 	repo-2_price 	10
scalar abilene_cost_network.statistics 	repo_popularity[0] 	0.33945880017902
scalar abilene_cost_network.statistics 	repo_popularity[1] 	0.30988277584688
scalar abilene_cost_network.statistics 	repo_popularity[2] 	0.35065842397411
scalar abilene_cost_network.statistics 	stabilization_time 	36060
scalar abilene_cost_network.statistics 	p_hit 	0.11182316478296
scalar abilene_cost_network.statistics 	interests 	167264.09090909
scalar abilene_cost_network.statistics 	data 	118173.36363636
scalar abilene_cost_network.statistics 	hdistance 	3.0590431932074
scalar abilene_cost_network.statistics 	avg_time 	0.014141894031
scalar abilene_cost_network.statistics 	downloads 	534334
scalar abilene_cost_network.statistics 	total_cost 	761015
scalar abilene_cost_network.statistics 	total_replicas 	100000
scalar abilene_cost_network.statistics 	inner_hit 	0.3920880947123
scalar abilene_cost_network.statistics 	interests_sent 	540009
scalar abilene_cost_network.node[0].core_layer 	interests[0] 	102945
scalar abilene_cost_network.node[0].core_layer 	repo_load[0] 	76305
scalar abilene_cost_network.node[0].core_layer 	data[0] 	0
scalar abilene_cost_network.node[0].core_layer 	repo_int[0] 	324828
scalar abilene_cost_network.node[0].content_store 	p_hit[0] 	0.25877895963864
scalar abilene_cost_network.node[0].content_store 	hits[0] 	26640
scalar abilene_cost_network.node[0].content_store 	misses[0] 	76305
scalar abilene_cost_network.node[0].content_store 	decision_yes[0] 	179
scalar abilene_cost_network.node[0].content_store 	decision_no[0] 	76126
scalar abilene_cost_network.node[0].content_store 	decision_ratio[0] 	0.0023458488958784
scalar abilene_cost_network.node[0].content_store 	correction_factor[0] 	0.0027225701061802
scalar abilene_cost_network.node[0].content_store 	xi[0] 	1
scalar abilene_cost_network.node[1].core_layer 	interests[1] 	217163
scalar abilene_cost_network.node[1].core_layer 	data[1] 	167924
scalar abilene_cost_network.node[1].content_store 	p_hit[1] 	0.22674212457923
scalar abilene_cost_network.node[1].content_store 	hits[1] 	49240
scalar abilene_cost_network.node[1].content_store 	misses[1] 	167923
scalar abilene_cost_network.node[1].content_store 	decision_yes[1] 	1435
scalar abilene_cost_network.node[1].content_store 	decision_no[1] 	166489
scalar abilene_cost_network.node[1].content_store 	decision_ratio[1] 	0.0085455325027989
scalar abilene_cost_network.node[1].content_store 	correction_factor[1] 	0.0027225701061802
scalar abilene_cost_network.node[1].content_store 	xi[1] 	1
scalar abilene_cost_network.node[2].core_layer 	interests[2] 	455495
scalar abilene_cost_network.node[2].core_layer 	repo_load[2] 	180052
scalar abilene_cost_network.node[2].core_layer 	data[2] 	246931
scalar abilene_cost_network.node[2].content_store 	p_hit[2] 	0.057535208948507
scalar abilene_cost_network.node[2].content_store 	hits[2] 	26207
scalar abilene_cost_network.node[2].content_store 	misses[2] 	429288
scalar abilene_cost_network.node[2].content_store 	decision_yes[2] 	1523
scalar abilene_cost_network.node[2].content_store 	decision_no[2] 	425460
scalar abilene_cost_network.node[2].content_store 	decision_ratio[2] 	0.0035668867378795
scalar abilene_cost_network.node[2].content_store 	correction_factor[2] 	0.0027225701061802
scalar abilene_cost_network.node[2].content_store 	xi[2] 	1
scalar abilene_cost_network.node[3].core_layer 	interests[3] 	320996
scalar abilene_cost_network.node[3].core_layer 	data[3] 	288063
scalar abilene_cost_network.node[3].content_store 	p_hit[3] 	0.096172537975551
scalar abilene_cost_network.node[3].content_store 	hits[3] 	30871
scalar abilene_cost_network.node[3].content_store 	misses[3] 	290125
scalar abilene_cost_network.node[3].content_store 	decision_yes[3] 	763
scalar abilene_cost_network.node[3].content_store 	decision_no[3] 	287300
scalar abilene_cost_network.node[3].content_store 	decision_ratio[3] 	0.002648726146711
scalar abilene_cost_network.node[3].content_store 	correction_factor[3] 	0.0027225701061802
scalar abilene_cost_network.node[3].content_store 	xi[3] 	1
scalar abilene_cost_network.node[4].core_layer 	interests[4] 	185796
scalar abilene_cost_network.node[4].core_layer 	data[4] 	175290
scalar abilene_cost_network.node[4].content_store 	p_hit[4] 	0.046943960042197
scalar abilene_cost_network.node[4].content_store 	hits[4] 	8722
scalar abilene_cost_network.node[4].content_store 	misses[4] 	177074
scalar abilene_cost_network.node[4].content_store 	decision_yes[4] 	734
scalar abilene_cost_network.node[4].content_store 	decision_no[4] 	174556
scalar abilene_cost_network.node[4].content_store 	decision_ratio[4] 	0.0041873466826402
scalar abilene_cost_network.node[4].content_store 	correction_factor[4] 	0.0027225701061802
scalar abilene_cost_network.node[4].content_store 	xi[4] 	1
scalar abilene_cost_network.node[5].core_layer 	interests[5] 	6239
scalar abilene_cost_network.node[5].core_layer 	data[5] 	6239
scalar abilene_cost_network.node[5].content_store 	p_hit[5] 	0
scalar abilene_cost_network.node[5].content_store 	hits[5] 	0
scalar abilene_cost_network.node[5].content_store 	misses[5] 	6239
scalar abilene_cost_network.node[5].content_store 	decision_yes[5] 	0
scalar abilene_cost_network.node[5].content_store 	decision_no[5] 	6239
scalar abilene_cost_network.node[5].content_store 	decision_ratio[5] 	0
scalar abilene_cost_network.node[5].content_store 	correction_factor[5] 	0.0027225701061802
scalar abilene_cost_network.node[5].content_store 	xi[5] 	1
scalar abilene_cost_network.node[6].core_layer 	interests[6] 	186599
scalar abilene_cost_network.node[6].core_layer 	data[6] 	173424
scalar abilene_cost_network.node[6].content_store 	p_hit[6] 	0.05306030578942
scalar abilene_cost_network.node[6].content_store 	hits[6] 	9901
scalar abilene_cost_network.node[6].content_store 	misses[6] 	176698
scalar abilene_cost_network.node[6].content_store 	decision_yes[6] 	697
scalar abilene_cost_network.node[6].content_store 	decision_no[6] 	172727
scalar abilene_cost_network.node[6].content_store 	decision_ratio[6] 	0.0040190515730233
scalar abilene_cost_network.node[6].content_store 	correction_factor[6] 	0.0027225701061802
scalar abilene_cost_network.node[6].content_store 	xi[6] 	1
scalar abilene_cost_network.node[7].core_layer 	interests[7] 	180167
scalar abilene_cost_network.node[7].core_layer 	data[7] 	170548
scalar abilene_cost_network.node[7].content_store 	p_hit[7] 	0.053406006649386
scalar abilene_cost_network.node[7].content_store 	hits[7] 	9622
scalar abilene_cost_network.node[7].content_store 	misses[7] 	170545
scalar abilene_cost_network.node[7].content_store 	decision_yes[7] 	708
scalar abilene_cost_network.node[7].content_store 	decision_no[7] 	169840
scalar abilene_cost_network.node[7].content_store 	decision_ratio[7] 	0.0041513239674461
scalar abilene_cost_network.node[7].content_store 	correction_factor[7] 	0.0027225701061802
scalar abilene_cost_network.node[7].content_store 	xi[7] 	1
scalar abilene_cost_network.node[8].core_layer 	interests[8] 	48040
scalar abilene_cost_network.node[8].core_layer 	data[8] 	38958
scalar abilene_cost_network.node[8].content_store 	p_hit[8] 	0.18892589508743
scalar abilene_cost_network.node[8].content_store 	hits[8] 	9076
scalar abilene_cost_network.node[8].content_store 	misses[8] 	38964
scalar abilene_cost_network.node[8].content_store 	decision_yes[8] 	648
scalar abilene_cost_network.node[8].content_store 	decision_no[8] 	38310
scalar abilene_cost_network.node[8].content_store 	decision_ratio[8] 	0.016633297397197
scalar abilene_cost_network.node[8].content_store 	correction_factor[8] 	0.0027225701061802
scalar abilene_cost_network.node[8].content_store 	xi[8] 	1
scalar abilene_cost_network.node[9].core_layer 	interests[9] 	38957
scalar abilene_cost_network.node[9].core_layer 	data[9] 	32530
scalar abilene_cost_network.node[9].content_store 	p_hit[9] 	0.16500243858613
scalar abilene_cost_network.node[9].content_store 	hits[9] 	6428
scalar abilene_cost_network.node[9].content_store 	misses[9] 	32529
scalar abilene_cost_network.node[9].content_store 	decision_yes[9] 	636
scalar abilene_cost_network.node[9].content_store 	decision_no[9] 	31894
scalar abilene_cost_network.node[9].content_store 	decision_ratio[9] 	0.019551183522902
scalar abilene_cost_network.node[9].content_store 	correction_factor[9] 	0.0027225701061802
scalar abilene_cost_network.node[9].content_store 	xi[9] 	1
scalar abilene_cost_network.node[10].core_layer 	interests[10] 	97508
scalar abilene_cost_network.node[10].core_layer 	repo_load[10] 	68471
scalar abilene_cost_network.node[10].core_layer 	data[10] 	0
scalar abilene_cost_network.node[10].content_store 	p_hit[10] 	0.29779095048611
scalar abilene_cost_network.node[10].content_store 	hits[10] 	29037
scalar abilene_cost_network.node[10].content_store 	misses[10] 	68471
scalar abilene_cost_network.node[10].content_store 	decision_yes[10] 	1811
scalar abilene_cost_network.node[10].content_store 	decision_no[10] 	66660
scalar abilene_cost_network.node[10].content_store 	decision_ratio[10] 	0.026449153656292
scalar abilene_cost_network.node[10].content_store 	correction_factor[10] 	0.0027225701061802
scalar abilene_cost_network.node[10].content_store 	xi[10] 	1
scalar abilene_cost_network.client[2] 	hdistance[2] 	1.6741369982207
scalar abilene_cost_network.client[2] 	downloads[2] 	179287
scalar abilene_cost_network.client[2] 	avg_time[2] 	0.007916862799
scalar abilene_cost_network.client[2] 	interests_sent[2] 	179904
scalar abilene_cost_network.client[4] 	hdistance[4] 	3.4091133447007
scalar abilene_cost_network.client[4] 	downloads[4] 	178288
scalar abilene_cost_network.client[4] 	avg_time[4] 	0.013350080478
scalar abilene_cost_network.client[4] 	interests_sent[4] 	180072
scalar abilene_cost_network.client[6] 	hdistance[6] 	4.0938792367007
scalar abilene_cost_network.client[6] 	downloads[6] 	176759
scalar abilene_cost_network.client[6] 	avg_time[6] 	0.021158738818
scalar abilene_cost_network.client[6] 	interests_sent[6] 	180033
