version 2
run General-14-20140902-16:02:55-17372
attr D lce
attr F nrr
attr R lru
attr a 1
attr configname General
attr csize 1e3
attr ctlg 1e5
attr datetime 20140902-16:02:55
attr experiment General
attr inifile omnetpp.ini
attr iterationvars "$net=abilene_cost, $rep=4, $priceratiovalue=10, $weights=0.333_0.333_0.334, $lambda=100, $a=1, $ctlg=1e5, $F=nrr, $ttl=10, $D=lce, $xi=1, $R=lru, $csize=1e3, $pricebits=0, $window=60, $variance=0.05, $mytime=1800"
attr iterationvars2 "$net=abilene_cost, $rep=4, $priceratiovalue=10, $weights=0.333_0.333_0.334, $lambda=100, $a=1, $ctlg=1e5, $F=nrr, $ttl=10, $D=lce, $xi=1, $R=lru, $csize=1e3, $pricebits=0, $window=60, $variance=0.05, $mytime=1800, $repetition=0"
attr lambda 100
attr measurement "$net=abilene_cost, $rep=4, $priceratiovalue=10, $weights=0.333_0.333_0.334, $lambda=100, $a=1, $ctlg=1e5, $F=nrr, $ttl=10, $D=lce, $xi=1, $R=lru, $csize=1e3, $pricebits=0, $window=60, $variance=0.05, $mytime=1800"
attr mytime 1800
attr net abilene_cost
attr network networks.${net=abilene_cost}_network
attr pricebits 0
attr priceratiovalue 10
attr processid 17372
attr rep 4
attr repetition 0
attr replication #0
attr resultdir results
attr runnumber 14
attr seedset 4
attr ttl 10
attr variance 0.05
attr weights 0.333_0.333_0.334
attr window 60
attr xi 1

scalar . 	a 	1
scalar . 	csize 	1e3
scalar . 	ctlg 	1e5
scalar . 	lambda 	100
scalar . 	mytime 	1800
scalar . 	pricebits 	0
scalar . 	priceratiovalue 	10
scalar . 	rep 	4
scalar . 	ttl 	10
scalar . 	variance 	0.05
scalar . 	window 	60
scalar . 	xi 	1
scalar abilene_cost_network.content_distribution 	repo-0 	2
scalar abilene_cost_network.content_distribution 	repo-1 	0
scalar abilene_cost_network.content_distribution 	repo-2 	10
scalar abilene_cost_network.content_distribution 	client-0 	6
scalar abilene_cost_network.content_distribution 	client-1 	2
scalar abilene_cost_network.content_distribution 	client-2 	4
scalar abilene_cost_network.content_distribution 	repo-0_card 	33274
scalar abilene_cost_network.content_distribution 	repo-0_price 	0
scalar abilene_cost_network.content_distribution 	repo-1_card 	33153
scalar abilene_cost_network.content_distribution 	repo-1_price 	1
scalar abilene_cost_network.content_distribution 	repo-2_card 	33573
scalar abilene_cost_network.content_distribution 	repo-2_price 	10
scalar abilene_cost_network.statistics 	repo_popularity[0] 	0.33945880017902
scalar abilene_cost_network.statistics 	repo_popularity[1] 	0.30988277584688
scalar abilene_cost_network.statistics 	repo_popularity[2] 	0.35065842397411
scalar abilene_cost_network.statistics 	stabilization_time 	91.2
scalar abilene_cost_network.statistics 	p_hit 	0.1538126404476
scalar abilene_cost_network.statistics 	interests 	138760.90909091
scalar abilene_cost_network.statistics 	data 	89686.818181818
scalar abilene_cost_network.statistics 	hdistance 	2.3927242336294
scalar abilene_cost_network.statistics 	avg_time 	0.01106071484
scalar abilene_cost_network.statistics 	downloads 	539449
scalar abilene_cost_network.statistics 	total_cost 	1033274
scalar abilene_cost_network.statistics 	total_replicas 	100000
scalar abilene_cost_network.statistics 	inner_hit 	0.43544060698972
scalar abilene_cost_network.statistics 	interests_sent 	539823
scalar abilene_cost_network.node[0].core_layer 	interests[0] 	96541
scalar abilene_cost_network.node[0].core_layer 	repo_load[0] 	94984
scalar abilene_cost_network.node[0].core_layer 	data[0] 	0
scalar abilene_cost_network.node[0].core_layer 	repo_int[0] 	304551
scalar abilene_cost_network.node[0].content_store 	p_hit[0] 	0.016127862773329
scalar abilene_cost_network.node[0].content_store 	hits[0] 	1557
scalar abilene_cost_network.node[0].content_store 	misses[0] 	94984
scalar abilene_cost_network.node[0].content_store 	decision_yes[0] 	94984
scalar abilene_cost_network.node[0].content_store 	decision_no[0] 	0
scalar abilene_cost_network.node[0].content_store 	decision_ratio[0] 	1
scalar abilene_cost_network.node[1].core_layer 	interests[1] 	161170
scalar abilene_cost_network.node[1].core_layer 	data[1] 	159862
scalar abilene_cost_network.node[1].content_store 	p_hit[1] 	0.0081094496494385
scalar abilene_cost_network.node[1].content_store 	hits[1] 	1307
scalar abilene_cost_network.node[1].content_store 	misses[1] 	159863
scalar abilene_cost_network.node[1].content_store 	decision_yes[1] 	159862
scalar abilene_cost_network.node[1].content_store 	decision_no[1] 	0
scalar abilene_cost_network.node[1].content_store 	decision_ratio[1] 	1
scalar abilene_cost_network.node[2].core_layer 	interests[2] 	350845
scalar abilene_cost_network.node[2].core_layer 	repo_load[2] 	115738
scalar abilene_cost_network.node[2].core_layer 	data[2] 	193674
scalar abilene_cost_network.node[2].content_store 	p_hit[2] 	0.11739087061238
scalar abilene_cost_network.node[2].content_store 	hits[2] 	41186
scalar abilene_cost_network.node[2].content_store 	misses[2] 	309659
scalar abilene_cost_network.node[2].content_store 	decision_yes[2] 	309346
scalar abilene_cost_network.node[2].content_store 	decision_no[2] 	0
scalar abilene_cost_network.node[2].content_store 	decision_ratio[2] 	1
scalar abilene_cost_network.node[3].core_layer 	interests[3] 	202846
scalar abilene_cost_network.node[3].core_layer 	data[3] 	197094
scalar abilene_cost_network.node[3].content_store 	p_hit[3] 	0.028277609615176
scalar abilene_cost_network.node[3].content_store 	hits[3] 	5736
scalar abilene_cost_network.node[3].content_store 	misses[3] 	197110
scalar abilene_cost_network.node[3].content_store 	decision_yes[3] 	197052
scalar abilene_cost_network.node[3].content_store 	decision_no[3] 	0
scalar abilene_cost_network.node[3].content_store 	decision_ratio[3] 	1
scalar abilene_cost_network.node[4].core_layer 	interests[4] 	203651
scalar abilene_cost_network.node[4].core_layer 	data[4] 	137513
scalar abilene_cost_network.node[4].content_store 	p_hit[4] 	0.3239119866831
scalar abilene_cost_network.node[4].content_store 	hits[4] 	65965
scalar abilene_cost_network.node[4].content_store 	misses[4] 	137686
scalar abilene_cost_network.node[4].content_store 	decision_yes[4] 	137513
scalar abilene_cost_network.node[4].content_store 	decision_no[4] 	0
scalar abilene_cost_network.node[4].content_store 	decision_ratio[4] 	1
scalar abilene_cost_network.node[5].core_layer 	interests[5] 	58023
scalar abilene_cost_network.node[5].core_layer 	data[5] 	1417
scalar abilene_cost_network.node[5].content_store 	p_hit[5] 	0.97557864984575
scalar abilene_cost_network.node[5].content_store 	hits[5] 	56606
scalar abilene_cost_network.node[5].content_store 	misses[5] 	1417
scalar abilene_cost_network.node[5].content_store 	decision_yes[5] 	1417
scalar abilene_cost_network.node[5].content_store 	decision_no[5] 	0
scalar abilene_cost_network.node[5].content_store 	decision_ratio[5] 	1
scalar abilene_cost_network.node[6].core_layer 	interests[6] 	182218
scalar abilene_cost_network.node[6].core_layer 	data[6] 	128795
scalar abilene_cost_network.node[6].content_store 	p_hit[6] 	0.29287995697461
scalar abilene_cost_network.node[6].content_store 	hits[6] 	53368
scalar abilene_cost_network.node[6].content_store 	misses[6] 	128850
scalar abilene_cost_network.node[6].content_store 	decision_yes[6] 	128795
scalar abilene_cost_network.node[6].content_store 	decision_no[6] 	0
scalar abilene_cost_network.node[6].content_store 	decision_ratio[6] 	1
scalar abilene_cost_network.node[7].core_layer 	interests[7] 	106934
scalar abilene_cost_network.node[7].core_layer 	data[7] 	104492
scalar abilene_cost_network.node[7].content_store 	p_hit[7] 	0.022864570669759
scalar abilene_cost_network.node[7].content_store 	hits[7] 	2445
scalar abilene_cost_network.node[7].content_store 	misses[7] 	104489
scalar abilene_cost_network.node[7].content_store 	decision_yes[7] 	104485
scalar abilene_cost_network.node[7].content_store 	decision_no[7] 	0
scalar abilene_cost_network.node[7].content_store 	decision_ratio[7] 	1
scalar abilene_cost_network.node[8].core_layer 	interests[8] 	37114
scalar abilene_cost_network.node[8].core_layer 	data[8] 	31972
scalar abilene_cost_network.node[8].content_store 	p_hit[8] 	0.13851915719136
scalar abilene_cost_network.node[8].content_store 	hits[8] 	5141
scalar abilene_cost_network.node[8].content_store 	misses[8] 	31973
scalar abilene_cost_network.node[8].content_store 	decision_yes[8] 	31972
scalar abilene_cost_network.node[8].content_store 	decision_no[8] 	0
scalar abilene_cost_network.node[8].content_store 	decision_ratio[8] 	1
scalar abilene_cost_network.node[9].core_layer 	interests[9] 	31970
scalar abilene_cost_network.node[9].core_layer 	data[9] 	31736
scalar abilene_cost_network.node[9].content_store 	p_hit[9] 	0.0073506412261495
scalar abilene_cost_network.node[9].content_store 	hits[9] 	235
scalar abilene_cost_network.node[9].content_store 	misses[9] 	31735
scalar abilene_cost_network.node[9].content_store 	decision_yes[9] 	31736
scalar abilene_cost_network.node[9].content_store 	decision_no[9] 	0
scalar abilene_cost_network.node[9].content_store 	decision_ratio[9] 	1
scalar abilene_cost_network.node[10].core_layer 	interests[10] 	95058
scalar abilene_cost_network.node[10].core_layer 	repo_load[10] 	93829
scalar abilene_cost_network.node[10].core_layer 	data[10] 	0
scalar abilene_cost_network.node[10].content_store 	p_hit[10] 	0.012928948641882
scalar abilene_cost_network.node[10].content_store 	hits[10] 	1229
scalar abilene_cost_network.node[10].content_store 	misses[10] 	93829
scalar abilene_cost_network.node[10].content_store 	decision_yes[10] 	93829
scalar abilene_cost_network.node[10].content_store 	decision_no[10] 	0
scalar abilene_cost_network.node[10].content_store 	decision_ratio[10] 	1
scalar abilene_cost_network.client[2] 	hdistance[2] 	1.696133644099
scalar abilene_cost_network.client[2] 	downloads[2] 	179342
scalar abilene_cost_network.client[2] 	avg_time[2] 	0.00759156611
scalar abilene_cost_network.client[2] 	interests_sent[2] 	179557
scalar abilene_cost_network.client[4] 	hdistance[4] 	2.5457085518511
scalar abilene_cost_network.client[4] 	downloads[4] 	180382
scalar abilene_cost_network.client[4] 	avg_time[4] 	0.010635469731
scalar abilene_cost_network.client[4] 	interests_sent[4] 	180486
scalar abilene_cost_network.client[6] 	hdistance[6] 	2.9363305049382
scalar abilene_cost_network.client[6] 	downloads[6] 	179725
scalar abilene_cost_network.client[6] 	avg_time[6] 	0.01495510868
scalar abilene_cost_network.client[6] 	interests_sent[6] 	179780
