version 2
run General-14-20140902-16:35:17-17312
attr D lce
attr F nrr
attr R lru
attr a 1
attr configname General
attr csize 1e3
attr ctlg 1e5
attr datetime 20140902-16:35:17
attr experiment General
attr inifile omnetpp.ini
attr iterationvars "$net=abilene_cost, $rep=9, $priceratiovalue=10, $weights=0.333_0.333_0.334, $lambda=100, $a=1, $ctlg=1e5, $F=nrr, $ttl=10, $D=lce, $xi=1, $R=lru, $csize=1e3, $pricebits=0, $window=60, $variance=0.05, $mytime=1800"
attr iterationvars2 "$net=abilene_cost, $rep=9, $priceratiovalue=10, $weights=0.333_0.333_0.334, $lambda=100, $a=1, $ctlg=1e5, $F=nrr, $ttl=10, $D=lce, $xi=1, $R=lru, $csize=1e3, $pricebits=0, $window=60, $variance=0.05, $mytime=1800, $repetition=0"
attr lambda 100
attr measurement "$net=abilene_cost, $rep=9, $priceratiovalue=10, $weights=0.333_0.333_0.334, $lambda=100, $a=1, $ctlg=1e5, $F=nrr, $ttl=10, $D=lce, $xi=1, $R=lru, $csize=1e3, $pricebits=0, $window=60, $variance=0.05, $mytime=1800"
attr mytime 1800
attr net abilene_cost
attr network networks.${net=abilene_cost}_network
attr pricebits 0
attr priceratiovalue 10
attr processid 17312
attr rep 9
attr repetition 0
attr replication #0
attr resultdir results
attr runnumber 14
attr seedset 9
attr ttl 10
attr variance 0.05
attr weights 0.333_0.333_0.334
attr window 60
attr xi 1

scalar . 	a 	1
scalar . 	csize 	1e3
scalar . 	ctlg 	1e5
scalar . 	lambda 	100
scalar . 	mytime 	1800
scalar . 	pricebits 	0
scalar . 	priceratiovalue 	10
scalar . 	rep 	9
scalar . 	ttl 	10
scalar . 	variance 	0.05
scalar . 	window 	60
scalar . 	xi 	1
scalar abilene_cost_network.content_distribution 	repo-0 	1
scalar abilene_cost_network.content_distribution 	repo-1 	9
scalar abilene_cost_network.content_distribution 	repo-2 	5
scalar abilene_cost_network.content_distribution 	client-0 	0
scalar abilene_cost_network.content_distribution 	client-1 	3
scalar abilene_cost_network.content_distribution 	client-2 	7
scalar abilene_cost_network.content_distribution 	repo-0_card 	33404
scalar abilene_cost_network.content_distribution 	repo-0_price 	10
scalar abilene_cost_network.content_distribution 	repo-1_card 	33170
scalar abilene_cost_network.content_distribution 	repo-1_price 	0
scalar abilene_cost_network.content_distribution 	repo-2_card 	33426
scalar abilene_cost_network.content_distribution 	repo-2_price 	1
scalar abilene_cost_network.statistics 	repo_popularity[0] 	0.31986479737952
scalar abilene_cost_network.statistics 	repo_popularity[1] 	0.28163181829958
scalar abilene_cost_network.statistics 	repo_popularity[2] 	0.39850338432091
scalar abilene_cost_network.statistics 	stabilization_time 	63.9
scalar abilene_cost_network.statistics 	p_hit 	0.15117483222842
scalar abilene_cost_network.statistics 	interests 	131767.36363636
scalar abilene_cost_network.statistics 	data 	82631.636363636
scalar abilene_cost_network.statistics 	hdistance 	2.2778203542847
scalar abilene_cost_network.statistics 	avg_time 	0.011028433726
scalar abilene_cost_network.statistics 	downloads 	539995
scalar abilene_cost_network.statistics 	total_cost 	1250764
scalar abilene_cost_network.statistics 	total_replicas 	100000
scalar abilene_cost_network.statistics 	inner_hit 	0.40609079713701
scalar abilene_cost_network.statistics 	interests_sent 	540488
scalar abilene_cost_network.node[0].core_layer 	interests[0] 	181030
scalar abilene_cost_network.node[0].core_layer 	data[0] 	129014
scalar abilene_cost_network.node[0].core_layer 	repo_int[0] 	320708
scalar abilene_cost_network.node[0].content_store 	p_hit[0] 	0.28603546373529
scalar abilene_cost_network.node[0].content_store 	hits[0] 	51781
scalar abilene_cost_network.node[0].content_store 	misses[0] 	129249
scalar abilene_cost_network.node[0].content_store 	decision_yes[0] 	129014
scalar abilene_cost_network.node[0].content_store 	decision_no[0] 	0
scalar abilene_cost_network.node[0].content_store 	decision_ratio[0] 	1
scalar abilene_cost_network.node[1].core_layer 	interests[1] 	172493
scalar abilene_cost_network.node[1].core_layer 	repo_load[1] 	114696
scalar abilene_cost_network.node[1].core_layer 	data[1] 	52485
scalar abilene_cost_network.node[1].content_store 	p_hit[1] 	0.030789655232386
scalar abilene_cost_network.node[1].content_store 	hits[1] 	5311
scalar abilene_cost_network.node[1].content_store 	misses[1] 	167182
scalar abilene_cost_network.node[1].content_store 	decision_yes[1] 	167179
scalar abilene_cost_network.node[1].content_store 	decision_no[1] 	0
scalar abilene_cost_network.node[1].content_store 	decision_ratio[1] 	1
scalar abilene_cost_network.node[2].core_layer 	interests[2] 	169185
scalar abilene_cost_network.node[2].core_layer 	data[2] 	166113
scalar abilene_cost_network.node[2].content_store 	p_hit[2] 	0.018122173951591
scalar abilene_cost_network.node[2].content_store 	hits[2] 	3066
scalar abilene_cost_network.node[2].content_store 	misses[2] 	166119
scalar abilene_cost_network.node[2].content_store 	decision_yes[2] 	166106
scalar abilene_cost_network.node[2].content_store 	decision_no[2] 	0
scalar abilene_cost_network.node[2].content_store 	decision_ratio[2] 	1
scalar abilene_cost_network.node[3].core_layer 	interests[3] 	274826
scalar abilene_cost_network.node[3].core_layer 	data[3] 	217180
scalar abilene_cost_network.node[3].content_store 	p_hit[3] 	0.20876481846696
scalar abilene_cost_network.node[3].content_store 	hits[3] 	57374
scalar abilene_cost_network.node[3].content_store 	misses[3] 	217452
scalar abilene_cost_network.node[3].content_store 	decision_yes[3] 	217166
scalar abilene_cost_network.node[3].content_store 	decision_no[3] 	0
scalar abilene_cost_network.node[3].content_store 	decision_ratio[3] 	1
scalar abilene_cost_network.node[4].core_layer 	interests[4] 	76447
scalar abilene_cost_network.node[4].core_layer 	data[4] 	69319
scalar abilene_cost_network.node[4].content_store 	p_hit[4] 	0.093241068975892
scalar abilene_cost_network.node[4].content_store 	hits[4] 	7128
scalar abilene_cost_network.node[4].content_store 	misses[4] 	69319
scalar abilene_cost_network.node[4].content_store 	decision_yes[4] 	69319
scalar abilene_cost_network.node[4].content_store 	decision_no[4] 	0
scalar abilene_cost_network.node[4].content_store 	decision_ratio[4] 	1
scalar abilene_cost_network.node[5].core_layer 	interests[5] 	104656
scalar abilene_cost_network.node[5].core_layer 	repo_load[5] 	103804
scalar abilene_cost_network.node[5].core_layer 	data[5] 	0
scalar abilene_cost_network.node[5].content_store 	p_hit[5] 	0.0081409570402079
scalar abilene_cost_network.node[5].content_store 	hits[5] 	852
scalar abilene_cost_network.node[5].content_store 	misses[5] 	103804
scalar abilene_cost_network.node[5].content_store 	decision_yes[5] 	103804
scalar abilene_cost_network.node[5].content_store 	decision_no[5] 	0
scalar abilene_cost_network.node[5].content_store 	decision_ratio[5] 	1
scalar abilene_cost_network.node[6].core_layer 	interests[6] 	46749
scalar abilene_cost_network.node[6].core_layer 	data[6] 	35337
scalar abilene_cost_network.node[6].content_store 	p_hit[6] 	0.24411217352243
scalar abilene_cost_network.node[6].content_store 	hits[6] 	11412
scalar abilene_cost_network.node[6].content_store 	misses[6] 	35337
scalar abilene_cost_network.node[6].content_store 	decision_yes[6] 	35337
scalar abilene_cost_network.node[6].content_store 	decision_no[6] 	0
scalar abilene_cost_network.node[6].content_store 	decision_ratio[6] 	1
scalar abilene_cost_network.node[7].core_layer 	interests[7] 	200697
scalar abilene_cost_network.node[7].core_layer 	data[7] 	134503
scalar abilene_cost_network.node[7].content_store 	p_hit[7] 	0.32915290213606
scalar abilene_cost_network.node[7].content_store 	hits[7] 	66060
scalar abilene_cost_network.node[7].content_store 	misses[7] 	134637
scalar abilene_cost_network.node[7].content_store 	decision_yes[7] 	134503
scalar abilene_cost_network.node[7].content_store 	decision_no[7] 	0
scalar abilene_cost_network.node[7].content_store 	decision_ratio[7] 	1
scalar abilene_cost_network.node[8].core_layer 	interests[8] 	76831
scalar abilene_cost_network.node[8].core_layer 	data[8] 	70346
scalar abilene_cost_network.node[8].content_store 	p_hit[8] 	0.084171753589046
scalar abilene_cost_network.node[8].content_store 	hits[8] 	6467
scalar abilene_cost_network.node[8].content_store 	misses[8] 	70364
scalar abilene_cost_network.node[8].content_store 	decision_yes[8] 	70346
scalar abilene_cost_network.node[8].content_store 	decision_no[8] 	0
scalar abilene_cost_network.node[8].content_store 	decision_ratio[8] 	1
scalar abilene_cost_network.node[9].core_layer 	interests[9] 	104997
scalar abilene_cost_network.node[9].core_layer 	repo_load[9] 	102208
scalar abilene_cost_network.node[9].core_layer 	data[9] 	0
scalar abilene_cost_network.node[9].content_store 	p_hit[9] 	0.026562663695153
scalar abilene_cost_network.node[9].content_store 	hits[9] 	2789
scalar abilene_cost_network.node[9].content_store 	misses[9] 	102208
scalar abilene_cost_network.node[9].content_store 	decision_yes[9] 	102208
scalar abilene_cost_network.node[9].content_store 	decision_no[9] 	0
scalar abilene_cost_network.node[9].content_store 	decision_ratio[9] 	1
scalar abilene_cost_network.node[10].core_layer 	interests[10] 	41530
scalar abilene_cost_network.node[10].core_layer 	data[10] 	34651
scalar abilene_cost_network.node[10].content_store 	p_hit[10] 	0.16563929689381
scalar abilene_cost_network.node[10].content_store 	hits[10] 	6879
scalar abilene_cost_network.node[10].content_store 	misses[10] 	34651
scalar abilene_cost_network.node[10].content_store 	decision_yes[10] 	34651
scalar abilene_cost_network.node[10].content_store 	decision_no[10] 	0
scalar abilene_cost_network.node[10].content_store 	decision_ratio[10] 	1
scalar abilene_cost_network.client[0] 	hdistance[0] 	2.4934332290283
scalar abilene_cost_network.client[0] 	downloads[0] 	179921
scalar abilene_cost_network.client[0] 	avg_time[0] 	0.012827434984
scalar abilene_cost_network.client[0] 	interests_sent[0] 	180156
scalar abilene_cost_network.client[3] 	hdistance[3] 	2.1748946484762
scalar abilene_cost_network.client[3] 	downloads[3] 	179874
scalar abilene_cost_network.client[3] 	avg_time[3] 	0.010234278701
scalar abilene_cost_network.client[3] 	interests_sent[3] 	180011
scalar abilene_cost_network.client[7] 	hdistance[7] 	2.1651331853496
scalar abilene_cost_network.client[7] 	downloads[7] 	180200
scalar abilene_cost_network.client[7] 	avg_time[7] 	0.010023587493
scalar abilene_cost_network.client[7] 	interests_sent[7] 	180321
