version 2
run General-10-20140902-15:56:45-17329
attr D lce
attr F nrr
attr R lru
attr a 1
attr configname General
attr csize 1e3
attr ctlg 1e5
attr datetime 20140902-15:56:45
attr experiment General
attr inifile omnetpp.ini
attr iterationvars "$net=abilene_cost, $rep=3, $priceratiovalue=10, $weights=0.333_0.333_0.334, $lambda=100, $a=1, $ctlg=1e5, $F=nrr, $ttl=10, $D=lce, $xi=1, $R=lru, $csize=1e3, $pricebits=0, $window=60, $variance=0.05, $mytime=1800"
attr iterationvars2 "$net=abilene_cost, $rep=3, $priceratiovalue=10, $weights=0.333_0.333_0.334, $lambda=100, $a=1, $ctlg=1e5, $F=nrr, $ttl=10, $D=lce, $xi=1, $R=lru, $csize=1e3, $pricebits=0, $window=60, $variance=0.05, $mytime=1800, $repetition=0"
attr lambda 100
attr measurement "$net=abilene_cost, $rep=3, $priceratiovalue=10, $weights=0.333_0.333_0.334, $lambda=100, $a=1, $ctlg=1e5, $F=nrr, $ttl=10, $D=lce, $xi=1, $R=lru, $csize=1e3, $pricebits=0, $window=60, $variance=0.05, $mytime=1800"
attr mytime 1800
attr net abilene_cost
attr network networks.${net=abilene_cost}_network
attr pricebits 0
attr priceratiovalue 10
attr processid 17329
attr rep 3
attr repetition 0
attr replication #0
attr resultdir results
attr runnumber 10
attr seedset 3
attr ttl 10
attr variance 0.05
attr weights 0.333_0.333_0.334
attr window 60
attr xi 1

scalar . 	a 	1
scalar . 	csize 	1e3
scalar . 	ctlg 	1e5
scalar . 	lambda 	100
scalar . 	mytime 	1800
scalar . 	pricebits 	0
scalar . 	priceratiovalue 	10
scalar . 	rep 	3
scalar . 	ttl 	10
scalar . 	variance 	0.05
scalar . 	window 	60
scalar . 	xi 	1
scalar abilene_cost_network.content_distribution 	repo-0 	9
scalar abilene_cost_network.content_distribution 	repo-1 	4
scalar abilene_cost_network.content_distribution 	repo-2 	0
scalar abilene_cost_network.content_distribution 	client-0 	9
scalar abilene_cost_network.content_distribution 	client-1 	0
scalar abilene_cost_network.content_distribution 	client-2 	1
scalar abilene_cost_network.content_distribution 	repo-0_card 	33498
scalar abilene_cost_network.content_distribution 	repo-0_price 	0
scalar abilene_cost_network.content_distribution 	repo-1_card 	33168
scalar abilene_cost_network.content_distribution 	repo-1_price 	10
scalar abilene_cost_network.content_distribution 	repo-2_card 	33334
scalar abilene_cost_network.content_distribution 	repo-2_price 	1
scalar abilene_cost_network.statistics 	repo_popularity[0] 	0.34820484875244
scalar abilene_cost_network.statistics 	repo_popularity[1] 	0.25519349814637
scalar abilene_cost_network.statistics 	repo_popularity[2] 	0.3966016531012
scalar abilene_cost_network.statistics 	stabilization_time 	36060
scalar abilene_cost_network.statistics 	p_hit 	0.1556794324646
scalar abilene_cost_network.statistics 	interests 	114793
scalar abilene_cost_network.statistics 	data 	65793.727272727
scalar abilene_cost_network.statistics 	hdistance 	1.9791253038224
scalar abilene_cost_network.statistics 	avg_time 	0.008606584665
scalar abilene_cost_network.statistics 	downloads 	538506
scalar abilene_cost_network.statistics 	total_cost 	1132840
scalar abilene_cost_network.statistics 	total_replicas 	100000
scalar abilene_cost_network.statistics 	inner_hit 	0.36520298752474
scalar abilene_cost_network.statistics 	interests_sent 	538989
scalar abilene_cost_network.node[0].core_layer 	interests[0] 	262113
scalar abilene_cost_network.node[0].core_layer 	repo_load[0] 	115220
scalar abilene_cost_network.node[0].core_layer 	data[0] 	91206
scalar abilene_cost_network.node[0].core_layer 	repo_int[0] 	341842
scalar abilene_cost_network.node[0].content_store 	p_hit[0] 	0.21181704074197
scalar abilene_cost_network.node[0].content_store 	hits[0] 	55520
scalar abilene_cost_network.node[0].content_store 	misses[0] 	206593
scalar abilene_cost_network.node[0].content_store 	decision_yes[0] 	206426
scalar abilene_cost_network.node[0].content_store 	decision_no[0] 	0
scalar abilene_cost_network.node[0].content_store 	decision_ratio[0] 	1
scalar abilene_cost_network.node[1].core_layer 	interests[1] 	227809
scalar abilene_cost_network.node[1].core_layer 	data[1] 	170287
scalar abilene_cost_network.node[1].content_store 	p_hit[1] 	0.25152210843294
scalar abilene_cost_network.node[1].content_store 	hits[1] 	57299
scalar abilene_cost_network.node[1].content_store 	misses[1] 	170510
scalar abilene_cost_network.node[1].content_store 	decision_yes[1] 	170285
scalar abilene_cost_network.node[1].content_store 	decision_no[1] 	0
scalar abilene_cost_network.node[1].content_store 	decision_ratio[1] 	1
scalar abilene_cost_network.node[2].core_layer 	interests[2] 	115498
scalar abilene_cost_network.node[2].core_layer 	data[2] 	109624
scalar abilene_cost_network.node[2].content_store 	p_hit[2] 	0.050658885868154
scalar abilene_cost_network.node[2].content_store 	hits[2] 	5851
scalar abilene_cost_network.node[2].content_store 	misses[2] 	109647
scalar abilene_cost_network.node[2].content_store 	decision_yes[2] 	109613
scalar abilene_cost_network.node[2].content_store 	decision_no[2] 	0
scalar abilene_cost_network.node[2].content_store 	decision_ratio[2] 	1
scalar abilene_cost_network.node[3].core_layer 	interests[3] 	102340
scalar abilene_cost_network.node[3].core_layer 	data[3] 	101786
scalar abilene_cost_network.node[3].content_store 	p_hit[3] 	0.0054230994723471
scalar abilene_cost_network.node[3].content_store 	hits[3] 	555
scalar abilene_cost_network.node[3].content_store 	misses[3] 	101785
scalar abilene_cost_network.node[3].content_store 	decision_yes[3] 	101786
scalar abilene_cost_network.node[3].content_store 	decision_no[3] 	0
scalar abilene_cost_network.node[3].content_store 	decision_ratio[3] 	1
scalar abilene_cost_network.node[4].core_layer 	interests[4] 	101786
scalar abilene_cost_network.node[4].core_layer 	repo_load[4] 	101762
scalar abilene_cost_network.node[4].core_layer 	data[4] 	0
scalar abilene_cost_network.node[4].content_store 	p_hit[4] 	0.00023578881182088
scalar abilene_cost_network.node[4].content_store 	hits[4] 	24
scalar abilene_cost_network.node[4].content_store 	misses[4] 	101762
scalar abilene_cost_network.node[4].content_store 	decision_yes[4] 	101762
scalar abilene_cost_network.node[4].content_store 	decision_no[4] 	0
scalar abilene_cost_network.node[4].content_store 	decision_ratio[4] 	1
scalar abilene_cost_network.node[5].core_layer 	interests[5] 	0
scalar abilene_cost_network.node[5].core_layer 	data[5] 	0
scalar abilene_cost_network.node[5].content_store 	p_hit[5] 	-nan
scalar abilene_cost_network.node[5].content_store 	hits[5] 	0
scalar abilene_cost_network.node[5].content_store 	misses[5] 	0
scalar abilene_cost_network.node[5].content_store 	decision_yes[5] 	0
scalar abilene_cost_network.node[5].content_store 	decision_no[5] 	0
scalar abilene_cost_network.node[5].content_store 	decision_ratio[5] 	0
scalar abilene_cost_network.node[6].core_layer 	interests[6] 	0
scalar abilene_cost_network.node[6].core_layer 	data[6] 	0
scalar abilene_cost_network.node[6].content_store 	p_hit[6] 	-nan
scalar abilene_cost_network.node[6].content_store 	hits[6] 	0
scalar abilene_cost_network.node[6].content_store 	misses[6] 	0
scalar abilene_cost_network.node[6].content_store 	decision_yes[6] 	0
scalar abilene_cost_network.node[6].content_store 	decision_no[6] 	0
scalar abilene_cost_network.node[6].content_store 	decision_ratio[6] 	0
scalar abilene_cost_network.node[7].core_layer 	interests[7] 	0
scalar abilene_cost_network.node[7].core_layer 	data[7] 	0
scalar abilene_cost_network.node[7].content_store 	p_hit[7] 	-nan
scalar abilene_cost_network.node[7].content_store 	hits[7] 	0
scalar abilene_cost_network.node[7].content_store 	misses[7] 	0
scalar abilene_cost_network.node[7].content_store 	decision_yes[7] 	0
scalar abilene_cost_network.node[7].content_store 	decision_no[7] 	0
scalar abilene_cost_network.node[7].content_store 	decision_ratio[7] 	0
scalar abilene_cost_network.node[8].core_layer 	interests[8] 	49519
scalar abilene_cost_network.node[8].core_layer 	data[8] 	35436
scalar abilene_cost_network.node[8].content_store 	p_hit[8] 	0.28439588844686
scalar abilene_cost_network.node[8].content_store 	hits[8] 	14083
scalar abilene_cost_network.node[8].content_store 	misses[8] 	35436
scalar abilene_cost_network.node[8].content_store 	decision_yes[8] 	35436
scalar abilene_cost_network.node[8].content_store 	decision_no[8] 	0
scalar abilene_cost_network.node[8].content_store 	decision_ratio[8] 	1
scalar abilene_cost_network.node[9].core_layer 	interests[9] 	264503
scalar abilene_cost_network.node[9].core_layer 	repo_load[9] 	124860
scalar abilene_cost_network.node[9].core_layer 	data[9] 	88002
scalar abilene_cost_network.node[9].content_store 	p_hit[9] 	0.19474259271161
scalar abilene_cost_network.node[9].content_store 	hits[9] 	51510
scalar abilene_cost_network.node[9].content_store 	misses[9] 	212993
scalar abilene_cost_network.node[9].content_store 	decision_yes[9] 	212862
scalar abilene_cost_network.node[9].content_store 	decision_no[9] 	0
scalar abilene_cost_network.node[9].content_store 	decision_ratio[9] 	1
scalar abilene_cost_network.node[10].core_layer 	interests[10] 	139155
scalar abilene_cost_network.node[10].core_layer 	data[10] 	127390
scalar abilene_cost_network.node[10].content_store 	p_hit[10] 	0.084351981603248
scalar abilene_cost_network.node[10].content_store 	hits[10] 	11738
scalar abilene_cost_network.node[10].content_store 	misses[10] 	127417
scalar abilene_cost_network.node[10].content_store 	decision_yes[10] 	127388
scalar abilene_cost_network.node[10].content_store 	decision_no[10] 	0
scalar abilene_cost_network.node[10].content_store 	decision_ratio[10] 	1
scalar abilene_cost_network.client[0] 	hdistance[0] 	2.0076254853216
scalar abilene_cost_network.client[0] 	downloads[0] 	179005
scalar abilene_cost_network.client[0] 	avg_time[0] 	0.00824426261
scalar abilene_cost_network.client[0] 	interests_sent[0] 	179172
scalar abilene_cost_network.client[1] 	hdistance[1] 	1.9795181729564
scalar abilene_cost_network.client[1] 	downloads[1] 	179525
scalar abilene_cost_network.client[1] 	avg_time[1] 	0.0087960986
scalar abilene_cost_network.client[1] 	interests_sent[1] 	179710
scalar abilene_cost_network.client[9] 	hdistance[9] 	1.9502322531893
scalar abilene_cost_network.client[9] 	downloads[9] 	179976
scalar abilene_cost_network.client[9] 	avg_time[9] 	0.008779392787
scalar abilene_cost_network.client[9] 	interests_sent[9] 	180107
