version 2
run General-6-20140902-15:43:01-4544
attr D lce
attr F nrr
attr R lru
attr a 1
attr configname General
attr csize 1e3
attr ctlg 1e5
attr datetime 20140902-15:43:01
attr experiment General
attr inifile omnetpp.ini
attr iterationvars "$net=abilene_cost, $rep=20, $priceratiovalue=10, $weights=0.333_0.333_0.334, $lambda=100, $a=1, $ctlg=1e5, $F=nrr, $ttl=10, $D=lce, $xi=1, $R=lru, $csize=1e3, $pricebits=0, $window=60, $variance=0.05, $mytime=1800"
attr iterationvars2 "$net=abilene_cost, $rep=20, $priceratiovalue=10, $weights=0.333_0.333_0.334, $lambda=100, $a=1, $ctlg=1e5, $F=nrr, $ttl=10, $D=lce, $xi=1, $R=lru, $csize=1e3, $pricebits=0, $window=60, $variance=0.05, $mytime=1800, $repetition=0"
attr lambda 100
attr measurement "$net=abilene_cost, $rep=20, $priceratiovalue=10, $weights=0.333_0.333_0.334, $lambda=100, $a=1, $ctlg=1e5, $F=nrr, $ttl=10, $D=lce, $xi=1, $R=lru, $csize=1e3, $pricebits=0, $window=60, $variance=0.05, $mytime=1800"
attr mytime 1800
attr net abilene_cost
attr network networks.${net=abilene_cost}_network
attr pricebits 0
attr priceratiovalue 10
attr processid 4544
attr rep 20
attr repetition 0
attr replication #0
attr resultdir results
attr runnumber 6
attr seedset 20
attr ttl 10
attr variance 0.05
attr weights 0.333_0.333_0.334
attr window 60
attr xi 1

scalar . 	a 	1
scalar . 	csize 	1e3
scalar . 	ctlg 	1e5
scalar . 	lambda 	100
scalar . 	mytime 	1800
scalar . 	pricebits 	0
scalar . 	priceratiovalue 	10
scalar . 	rep 	20
scalar . 	ttl 	10
scalar . 	variance 	0.05
scalar . 	window 	60
scalar . 	xi 	1
scalar abilene_cost_network.content_distribution 	repo-0 	3
scalar abilene_cost_network.content_distribution 	repo-1 	2
scalar abilene_cost_network.content_distribution 	repo-2 	0
scalar abilene_cost_network.content_distribution 	client-0 	10
scalar abilene_cost_network.content_distribution 	client-1 	1
scalar abilene_cost_network.content_distribution 	client-2 	7
scalar abilene_cost_network.content_distribution 	repo-0_card 	33322
scalar abilene_cost_network.content_distribution 	repo-0_price 	1
scalar abilene_cost_network.content_distribution 	repo-1_card 	33295
scalar abilene_cost_network.content_distribution 	repo-1_price 	0
scalar abilene_cost_network.content_distribution 	repo-2_card 	33383
scalar abilene_cost_network.content_distribution 	repo-2_price 	10
scalar abilene_cost_network.statistics 	repo_popularity[0] 	0.35214481683808
scalar abilene_cost_network.statistics 	repo_popularity[1] 	0.2979978729425
scalar abilene_cost_network.statistics 	repo_popularity[2] 	0.34985731021944
scalar abilene_cost_network.statistics 	stabilization_time 	36060
scalar abilene_cost_network.statistics 	p_hit 	0.19294709383813
scalar abilene_cost_network.statistics 	interests 	111626.45454545
scalar abilene_cost_network.statistics 	data 	62425
scalar abilene_cost_network.statistics 	hdistance 	1.831209410494
scalar abilene_cost_network.statistics 	avg_time 	0.008464438949
scalar abilene_cost_network.statistics 	downloads 	540805
scalar abilene_cost_network.statistics 	total_cost 	1067824
scalar abilene_cost_network.statistics 	total_replicas 	100000
scalar abilene_cost_network.statistics 	inner_hit 	0.43818381856677
scalar abilene_cost_network.statistics 	interests_sent 	541207
scalar abilene_cost_network.node[0].core_layer 	interests[0] 	99944
scalar abilene_cost_network.node[0].core_layer 	repo_load[0] 	96712
scalar abilene_cost_network.node[0].core_layer 	data[0] 	0
scalar abilene_cost_network.node[0].core_layer 	repo_int[0] 	303833
scalar abilene_cost_network.node[0].content_store 	p_hit[0] 	0.032338109341231
scalar abilene_cost_network.node[0].content_store 	hits[0] 	3232
scalar abilene_cost_network.node[0].content_store 	misses[0] 	96712
scalar abilene_cost_network.node[0].content_store 	decision_yes[0] 	96712
scalar abilene_cost_network.node[0].content_store 	decision_no[0] 	0
scalar abilene_cost_network.node[0].content_store 	decision_ratio[0] 	1
scalar abilene_cost_network.node[1].core_layer 	interests[1] 	284556
scalar abilene_cost_network.node[1].core_layer 	data[1] 	238807
scalar abilene_cost_network.node[1].content_store 	p_hit[1] 	0.15984551371259
scalar abilene_cost_network.node[1].content_store 	hits[1] 	45485
scalar abilene_cost_network.node[1].content_store 	misses[1] 	239071
scalar abilene_cost_network.node[1].content_store 	decision_yes[1] 	238765
scalar abilene_cost_network.node[1].content_store 	decision_no[1] 	0
scalar abilene_cost_network.node[1].content_store 	decision_ratio[1] 	1
scalar abilene_cost_network.node[2].core_layer 	interests[2] 	216884
scalar abilene_cost_network.node[2].core_layer 	repo_load[2] 	106417
scalar abilene_cost_network.node[2].core_layer 	data[2] 	108532
scalar abilene_cost_network.node[2].content_store 	p_hit[2] 	0.0089172091993877
scalar abilene_cost_network.node[2].content_store 	hits[2] 	1934
scalar abilene_cost_network.node[2].content_store 	misses[2] 	214950
scalar abilene_cost_network.node[2].content_store 	decision_yes[2] 	214949
scalar abilene_cost_network.node[2].content_store 	decision_no[2] 	0
scalar abilene_cost_network.node[2].content_store 	decision_ratio[2] 	1
scalar abilene_cost_network.node[3].core_layer 	interests[3] 	171111
scalar abilene_cost_network.node[3].core_layer 	repo_load[3] 	100704
scalar abilene_cost_network.node[3].core_layer 	data[3] 	68776
scalar abilene_cost_network.node[3].content_store 	p_hit[3] 	0.0095201360520364
scalar abilene_cost_network.node[3].content_store 	hits[3] 	1629
scalar abilene_cost_network.node[3].content_store 	misses[3] 	169482
scalar abilene_cost_network.node[3].content_store 	decision_yes[3] 	169480
scalar abilene_cost_network.node[3].content_store 	decision_no[3] 	0
scalar abilene_cost_network.node[3].content_store 	decision_ratio[3] 	1
scalar abilene_cost_network.node[4].core_layer 	interests[4] 	0
scalar abilene_cost_network.node[4].core_layer 	data[4] 	0
scalar abilene_cost_network.node[4].content_store 	p_hit[4] 	-nan
scalar abilene_cost_network.node[4].content_store 	hits[4] 	0
scalar abilene_cost_network.node[4].content_store 	misses[4] 	0
scalar abilene_cost_network.node[4].content_store 	decision_yes[4] 	0
scalar abilene_cost_network.node[4].content_store 	decision_no[4] 	0
scalar abilene_cost_network.node[4].content_store 	decision_ratio[4] 	0
scalar abilene_cost_network.node[5].core_layer 	interests[5] 	0
scalar abilene_cost_network.node[5].core_layer 	data[5] 	0
scalar abilene_cost_network.node[5].content_store 	p_hit[5] 	-nan
scalar abilene_cost_network.node[5].content_store 	hits[5] 	0
scalar abilene_cost_network.node[5].content_store 	misses[5] 	0
scalar abilene_cost_network.node[5].content_store 	decision_yes[5] 	0
scalar abilene_cost_network.node[5].content_store 	decision_no[5] 	0
scalar abilene_cost_network.node[5].content_store 	decision_ratio[5] 	0
scalar abilene_cost_network.node[6].core_layer 	interests[6] 	0
scalar abilene_cost_network.node[6].core_layer 	data[6] 	0
scalar abilene_cost_network.node[6].content_store 	p_hit[6] 	-nan
scalar abilene_cost_network.node[6].content_store 	hits[6] 	0
scalar abilene_cost_network.node[6].content_store 	misses[6] 	0
scalar abilene_cost_network.node[6].content_store 	decision_yes[6] 	0
scalar abilene_cost_network.node[6].content_store 	decision_no[6] 	0
scalar abilene_cost_network.node[6].content_store 	decision_ratio[6] 	0
scalar abilene_cost_network.node[7].core_layer 	interests[7] 	181161
scalar abilene_cost_network.node[7].core_layer 	data[7] 	130089
scalar abilene_cost_network.node[7].content_store 	p_hit[7] 	0.28124706752557
scalar abilene_cost_network.node[7].content_store 	hits[7] 	50951
scalar abilene_cost_network.node[7].content_store 	misses[7] 	130210
scalar abilene_cost_network.node[7].content_store 	decision_yes[7] 	130089
scalar abilene_cost_network.node[7].content_store 	decision_no[7] 	0
scalar abilene_cost_network.node[7].content_store 	decision_ratio[7] 	1
scalar abilene_cost_network.node[8].core_layer 	interests[8] 	35489
scalar abilene_cost_network.node[8].core_layer 	data[8] 	2472
scalar abilene_cost_network.node[8].content_store 	p_hit[8] 	0.930344613824
scalar abilene_cost_network.node[8].content_store 	hits[8] 	33017
scalar abilene_cost_network.node[8].content_store 	misses[8] 	2472
scalar abilene_cost_network.node[8].content_store 	decision_yes[8] 	2472
scalar abilene_cost_network.node[8].content_store 	decision_no[8] 	0
scalar abilene_cost_network.node[8].content_store 	decision_ratio[8] 	1
scalar abilene_cost_network.node[9].core_layer 	interests[9] 	33277
scalar abilene_cost_network.node[9].core_layer 	data[9] 	2222
scalar abilene_cost_network.node[9].content_store 	p_hit[9] 	0.93322715389007
scalar abilene_cost_network.node[9].content_store 	hits[9] 	31055
scalar abilene_cost_network.node[9].content_store 	misses[9] 	2222
scalar abilene_cost_network.node[9].content_store 	decision_yes[9] 	2222
scalar abilene_cost_network.node[9].content_store 	decision_no[9] 	0
scalar abilene_cost_network.node[9].content_store 	decision_ratio[9] 	1
scalar abilene_cost_network.node[10].core_layer 	interests[10] 	205469
scalar abilene_cost_network.node[10].core_layer 	data[10] 	135777
scalar abilene_cost_network.node[10].content_store 	p_hit[10] 	0.33881023414724
scalar abilene_cost_network.node[10].content_store 	hits[10] 	69615
scalar abilene_cost_network.node[10].content_store 	misses[10] 	135854
scalar abilene_cost_network.node[10].content_store 	decision_yes[10] 	135776
scalar abilene_cost_network.node[10].content_store 	decision_no[10] 	0
scalar abilene_cost_network.node[10].content_store 	decision_ratio[10] 	1
scalar abilene_cost_network.client[1] 	hdistance[1] 	1.6219008494484
scalar abilene_cost_network.client[1] 	downloads[1] 	179646
scalar abilene_cost_network.client[1] 	avg_time[1] 	0.007404509311
scalar abilene_cost_network.client[1] 	interests_sent[1] 	179872
scalar abilene_cost_network.client[7] 	hdistance[7] 	2.0421826196752
scalar abilene_cost_network.client[7] 	downloads[7] 	180572
scalar abilene_cost_network.client[7] 	avg_time[7] 	0.008908349474
scalar abilene_cost_network.client[7] 	interests_sent[7] 	180693
scalar abilene_cost_network.client[10] 	hdistance[10] 	1.8295447623583
scalar abilene_cost_network.client[10] 	downloads[10] 	180587
scalar abilene_cost_network.client[10] 	avg_time[10] 	0.009080458062
scalar abilene_cost_network.client[10] 	interests_sent[10] 	180642
