version 2
run General-10-20140902-15:36:58-27558
attr D lce
attr F nrr
attr R lru
attr a 1
attr configname General
attr csize 1e3
attr ctlg 1e5
attr datetime 20140902-15:36:58
attr experiment General
attr inifile omnetpp.ini
attr iterationvars "$net=abilene_cost, $rep=13, $priceratiovalue=10, $weights=0.333_0.333_0.334, $lambda=100, $a=1, $ctlg=1e5, $F=nrr, $ttl=10, $D=lce, $xi=1, $R=lru, $csize=1e3, $pricebits=0, $window=60, $variance=0.05, $mytime=1800"
attr iterationvars2 "$net=abilene_cost, $rep=13, $priceratiovalue=10, $weights=0.333_0.333_0.334, $lambda=100, $a=1, $ctlg=1e5, $F=nrr, $ttl=10, $D=lce, $xi=1, $R=lru, $csize=1e3, $pricebits=0, $window=60, $variance=0.05, $mytime=1800, $repetition=0"
attr lambda 100
attr measurement "$net=abilene_cost, $rep=13, $priceratiovalue=10, $weights=0.333_0.333_0.334, $lambda=100, $a=1, $ctlg=1e5, $F=nrr, $ttl=10, $D=lce, $xi=1, $R=lru, $csize=1e3, $pricebits=0, $window=60, $variance=0.05, $mytime=1800"
attr mytime 1800
attr net abilene_cost
attr network networks.${net=abilene_cost}_network
attr pricebits 0
attr priceratiovalue 10
attr processid 27558
attr rep 13
attr repetition 0
attr replication #0
attr resultdir results
attr runnumber 10
attr seedset 13
attr ttl 10
attr variance 0.05
attr weights 0.333_0.333_0.334
attr window 60
attr xi 1

scalar . 	a 	1
scalar . 	csize 	1e3
scalar . 	ctlg 	1e5
scalar . 	lambda 	100
scalar . 	mytime 	1800
scalar . 	pricebits 	0
scalar . 	priceratiovalue 	10
scalar . 	rep 	13
scalar . 	ttl 	10
scalar . 	variance 	0.05
scalar . 	window 	60
scalar . 	xi 	1
scalar abilene_cost_network.content_distribution 	repo-0 	6
scalar abilene_cost_network.content_distribution 	repo-1 	7
scalar abilene_cost_network.content_distribution 	repo-2 	5
scalar abilene_cost_network.content_distribution 	client-0 	8
scalar abilene_cost_network.content_distribution 	client-1 	2
scalar abilene_cost_network.content_distribution 	client-2 	1
scalar abilene_cost_network.content_distribution 	repo-0_card 	33148
scalar abilene_cost_network.content_distribution 	repo-0_price 	0
scalar abilene_cost_network.content_distribution 	repo-1_card 	33484
scalar abilene_cost_network.content_distribution 	repo-1_price 	1
scalar abilene_cost_network.content_distribution 	repo-2_card 	33368
scalar abilene_cost_network.content_distribution 	repo-2_price 	10
scalar abilene_cost_network.statistics 	repo_popularity[0] 	0.30980219785013
scalar abilene_cost_network.statistics 	repo_popularity[1] 	0.41260472724909
scalar abilene_cost_network.statistics 	repo_popularity[2] 	0.27759307490078
scalar abilene_cost_network.statistics 	stabilization_time 	36060
scalar abilene_cost_network.statistics 	p_hit 	0.13110896456366
scalar abilene_cost_network.statistics 	interests 	140700.45454545
scalar abilene_cost_network.statistics 	data 	91584.909090909
scalar abilene_cost_network.statistics 	hdistance 	2.4908742265634
scalar abilene_cost_network.statistics 	avg_time 	0.009977564624
scalar abilene_cost_network.statistics 	downloads 	539835
scalar abilene_cost_network.statistics 	total_cost 	1180043
scalar abilene_cost_network.statistics 	total_replicas 	100000
scalar abilene_cost_network.statistics 	inner_hit 	0.37630757546287
scalar abilene_cost_network.statistics 	interests_sent 	540268
scalar abilene_cost_network.node[0].core_layer 	interests[0] 	0
scalar abilene_cost_network.node[0].core_layer 	data[0] 	0
scalar abilene_cost_network.node[0].core_layer 	repo_int[0] 	336691
scalar abilene_cost_network.node[0].content_store 	p_hit[0] 	-nan
scalar abilene_cost_network.node[0].content_store 	hits[0] 	0
scalar abilene_cost_network.node[0].content_store 	misses[0] 	0
scalar abilene_cost_network.node[0].content_store 	decision_yes[0] 	0
scalar abilene_cost_network.node[0].content_store 	decision_no[0] 	0
scalar abilene_cost_network.node[0].content_store 	decision_ratio[0] 	0
scalar abilene_cost_network.node[1].core_layer 	interests[1] 	191268
scalar abilene_cost_network.node[1].core_layer 	data[1] 	127493
scalar abilene_cost_network.node[1].content_store 	p_hit[1] 	0.33273208273208
scalar abilene_cost_network.node[1].content_store 	hits[1] 	63641
scalar abilene_cost_network.node[1].content_store 	misses[1] 	127627
scalar abilene_cost_network.node[1].content_store 	decision_yes[1] 	127493
scalar abilene_cost_network.node[1].content_store 	decision_no[1] 	0
scalar abilene_cost_network.node[1].content_store 	decision_ratio[1] 	1
scalar abilene_cost_network.node[2].core_layer 	interests[2] 	319614
scalar abilene_cost_network.node[2].core_layer 	data[2] 	261023
scalar abilene_cost_network.node[2].content_store 	p_hit[2] 	0.18217287102567
scalar abilene_cost_network.node[2].content_store 	hits[2] 	58225
scalar abilene_cost_network.node[2].content_store 	misses[2] 	261389
scalar abilene_cost_network.node[2].content_store 	decision_yes[2] 	260979
scalar abilene_cost_network.node[2].content_store 	decision_no[2] 	0
scalar abilene_cost_network.node[2].content_store 	decision_ratio[2] 	1
scalar abilene_cost_network.node[3].core_layer 	interests[3] 	233571
scalar abilene_cost_network.node[3].core_layer 	data[3] 	232144
scalar abilene_cost_network.node[3].content_store 	p_hit[3] 	0.0061009286255571
scalar abilene_cost_network.node[3].content_store 	hits[3] 	1425
scalar abilene_cost_network.node[3].content_store 	misses[3] 	232146
scalar abilene_cost_network.node[3].content_store 	decision_yes[3] 	232144
scalar abilene_cost_network.node[3].content_store 	decision_no[3] 	0
scalar abilene_cost_network.node[3].content_store 	decision_ratio[3] 	1
scalar abilene_cost_network.node[4].core_layer 	interests[4] 	77758
scalar abilene_cost_network.node[4].core_layer 	data[4] 	71288
scalar abilene_cost_network.node[4].content_store 	p_hit[4] 	0.083206872604748
scalar abilene_cost_network.node[4].content_store 	hits[4] 	6470
scalar abilene_cost_network.node[4].content_store 	misses[4] 	71288
scalar abilene_cost_network.node[4].content_store 	decision_yes[4] 	71288
scalar abilene_cost_network.node[4].content_store 	decision_no[4] 	0
scalar abilene_cost_network.node[4].content_store 	decision_ratio[4] 	1
scalar abilene_cost_network.node[5].core_layer 	interests[5] 	107559
scalar abilene_cost_network.node[5].core_layer 	repo_load[5] 	106307
scalar abilene_cost_network.node[5].core_layer 	data[5] 	0
scalar abilene_cost_network.node[5].content_store 	p_hit[5] 	0.011640123095231
scalar abilene_cost_network.node[5].content_store 	hits[5] 	1252
scalar abilene_cost_network.node[5].content_store 	misses[5] 	106307
scalar abilene_cost_network.node[5].content_store 	decision_yes[5] 	106307
scalar abilene_cost_network.node[5].content_store 	decision_no[5] 	0
scalar abilene_cost_network.node[5].content_store 	decision_ratio[5] 	1
scalar abilene_cost_network.node[6].core_layer 	interests[6] 	151165
scalar abilene_cost_network.node[6].core_layer 	repo_load[6] 	113411
scalar abilene_cost_network.node[6].core_layer 	data[6] 	36271
scalar abilene_cost_network.node[6].content_store 	p_hit[6] 	0.0098104720007938
scalar abilene_cost_network.node[6].content_store 	hits[6] 	1483
scalar abilene_cost_network.node[6].content_store 	misses[6] 	149682
scalar abilene_cost_network.node[6].content_store 	decision_yes[6] 	149682
scalar abilene_cost_network.node[6].content_store 	decision_no[6] 	0
scalar abilene_cost_network.node[6].content_store 	decision_ratio[6] 	1
scalar abilene_cost_network.node[7].core_layer 	interests[7] 	270095
scalar abilene_cost_network.node[7].core_layer 	repo_load[7] 	116973
scalar abilene_cost_network.node[7].core_layer 	data[7] 	151165
scalar abilene_cost_network.node[7].content_store 	p_hit[7] 	0.0070975027305207
scalar abilene_cost_network.node[7].content_store 	hits[7] 	1917
scalar abilene_cost_network.node[7].content_store 	misses[7] 	268178
scalar abilene_cost_network.node[7].content_store 	decision_yes[7] 	268138
scalar abilene_cost_network.node[7].content_store 	decision_no[7] 	0
scalar abilene_cost_network.node[7].content_store 	decision_ratio[7] 	1
scalar abilene_cost_network.node[8].core_layer 	interests[8] 	196675
scalar abilene_cost_network.node[8].core_layer 	data[8] 	128050
scalar abilene_cost_network.node[8].content_store 	p_hit[8] 	0.34831574933266
scalar abilene_cost_network.node[8].content_store 	hits[8] 	68505
scalar abilene_cost_network.node[8].content_store 	misses[8] 	128170
scalar abilene_cost_network.node[8].content_store 	decision_yes[8] 	128050
scalar abilene_cost_network.node[8].content_store 	decision_no[8] 	0
scalar abilene_cost_network.node[8].content_store 	decision_ratio[8] 	1
scalar abilene_cost_network.node[9].core_layer 	interests[9] 	0
scalar abilene_cost_network.node[9].core_layer 	data[9] 	0
scalar abilene_cost_network.node[9].content_store 	p_hit[9] 	-nan
scalar abilene_cost_network.node[9].content_store 	hits[9] 	0
scalar abilene_cost_network.node[9].content_store 	misses[9] 	0
scalar abilene_cost_network.node[9].content_store 	decision_yes[9] 	0
scalar abilene_cost_network.node[9].content_store 	decision_no[9] 	0
scalar abilene_cost_network.node[9].content_store 	decision_ratio[9] 	0
scalar abilene_cost_network.node[10].core_layer 	interests[10] 	0
scalar abilene_cost_network.node[10].core_layer 	data[10] 	0
scalar abilene_cost_network.node[10].content_store 	p_hit[10] 	-nan
scalar abilene_cost_network.node[10].content_store 	hits[10] 	0
scalar abilene_cost_network.node[10].content_store 	misses[10] 	0
scalar abilene_cost_network.node[10].content_store 	decision_yes[10] 	0
scalar abilene_cost_network.node[10].content_store 	decision_no[10] 	0
scalar abilene_cost_network.node[10].content_store 	decision_ratio[10] 	0
scalar abilene_cost_network.client[1] 	hdistance[1] 	3.0562106678072
scalar abilene_cost_network.client[1] 	downloads[1] 	180037
scalar abilene_cost_network.client[1] 	avg_time[1] 	0.012683562986
scalar abilene_cost_network.client[1] 	interests_sent[1] 	180171
scalar abilene_cost_network.client[2] 	hdistance[2] 	2.4200468822209
scalar abilene_cost_network.client[2] 	downloads[2] 	179599
scalar abilene_cost_network.client[2] 	avg_time[2] 	0.008865597203
scalar abilene_cost_network.client[2] 	interests_sent[2] 	179778
scalar abilene_cost_network.client[8] 	hdistance[8] 	1.9963651296622
scalar abilene_cost_network.client[8] 	downloads[8] 	180199
scalar abilene_cost_network.client[8] 	avg_time[8] 	0.008383533684
scalar abilene_cost_network.client[8] 	interests_sent[8] 	180319
