version 2
run General-2-20140902-15:32:01-20390
attr D lce
attr F nrr
attr R lru
attr a 1
attr configname General
attr csize 1e3
attr ctlg 1e5
attr datetime 20140902-15:32:01
attr experiment General
attr inifile omnetpp.ini
attr iterationvars "$net=abilene_cost, $rep=17, $priceratiovalue=10, $weights=0.333_0.333_0.334, $lambda=100, $a=1, $ctlg=1e5, $F=nrr, $ttl=10, $D=lce, $xi=1, $R=lru, $csize=1e3, $pricebits=0, $window=60, $variance=0.05, $mytime=1800"
attr iterationvars2 "$net=abilene_cost, $rep=17, $priceratiovalue=10, $weights=0.333_0.333_0.334, $lambda=100, $a=1, $ctlg=1e5, $F=nrr, $ttl=10, $D=lce, $xi=1, $R=lru, $csize=1e3, $pricebits=0, $window=60, $variance=0.05, $mytime=1800, $repetition=0"
attr lambda 100
attr measurement "$net=abilene_cost, $rep=17, $priceratiovalue=10, $weights=0.333_0.333_0.334, $lambda=100, $a=1, $ctlg=1e5, $F=nrr, $ttl=10, $D=lce, $xi=1, $R=lru, $csize=1e3, $pricebits=0, $window=60, $variance=0.05, $mytime=1800"
attr mytime 1800
attr net abilene_cost
attr network networks.${net=abilene_cost}_network
attr pricebits 0
attr priceratiovalue 10
attr processid 20390
attr rep 17
attr repetition 0
attr replication #0
attr resultdir results
attr runnumber 2
attr seedset 17
attr ttl 10
attr variance 0.05
attr weights 0.333_0.333_0.334
attr window 60
attr xi 1

scalar . 	a 	1
scalar . 	csize 	1e3
scalar . 	ctlg 	1e5
scalar . 	lambda 	100
scalar . 	mytime 	1800
scalar . 	pricebits 	0
scalar . 	priceratiovalue 	10
scalar . 	rep 	17
scalar . 	ttl 	10
scalar . 	variance 	0.05
scalar . 	window 	60
scalar . 	xi 	1
scalar abilene_cost_network.content_distribution 	repo-0 	5
scalar abilene_cost_network.content_distribution 	repo-1 	7
scalar abilene_cost_network.content_distribution 	repo-2 	6
scalar abilene_cost_network.content_distribution 	client-0 	7
scalar abilene_cost_network.content_distribution 	client-1 	0
scalar abilene_cost_network.content_distribution 	client-2 	5
scalar abilene_cost_network.content_distribution 	repo-0_card 	33433
scalar abilene_cost_network.content_distribution 	repo-0_price 	10
scalar abilene_cost_network.content_distribution 	repo-1_card 	33237
scalar abilene_cost_network.content_distribution 	repo-1_price 	0
scalar abilene_cost_network.content_distribution 	repo-2_card 	33330
scalar abilene_cost_network.content_distribution 	repo-2_price 	1
scalar abilene_cost_network.statistics 	repo_popularity[0] 	0.26765239259926
scalar abilene_cost_network.statistics 	repo_popularity[1] 	0.4212005119898
scalar abilene_cost_network.statistics 	repo_popularity[2] 	0.31114709541094
scalar abilene_cost_network.statistics 	stabilization_time 	36060
scalar abilene_cost_network.statistics 	p_hit 	0.13640194712489
scalar abilene_cost_network.statistics 	interests 	126844.36363636
scalar abilene_cost_network.statistics 	data 	77706
scalar abilene_cost_network.statistics 	hdistance 	2.2307375743624
scalar abilene_cost_network.statistics 	avg_time 	0.009023692258
scalar abilene_cost_network.statistics 	downloads 	539994
scalar abilene_cost_network.statistics 	total_cost 	1149974
scalar abilene_cost_network.statistics 	total_replicas 	100000
scalar abilene_cost_network.statistics 	inner_hit 	0.35247984236862
scalar abilene_cost_network.statistics 	interests_sent 	540518
scalar abilene_cost_network.node[0].core_layer 	interests[0] 	180246
scalar abilene_cost_network.node[0].core_layer 	data[0] 	129238
scalar abilene_cost_network.node[0].core_layer 	repo_int[0] 	349657
scalar abilene_cost_network.node[0].content_store 	p_hit[0] 	0.28103813676864
scalar abilene_cost_network.node[0].content_store 	hits[0] 	50656
scalar abilene_cost_network.node[0].content_store 	misses[0] 	129590
scalar abilene_cost_network.node[0].content_store 	decision_yes[0] 	129238
scalar abilene_cost_network.node[0].content_store 	decision_no[0] 	0
scalar abilene_cost_network.node[0].content_store 	decision_ratio[0] 	1
scalar abilene_cost_network.node[1].core_layer 	interests[1] 	129250
scalar abilene_cost_network.node[1].core_layer 	data[1] 	128564
scalar abilene_cost_network.node[1].content_store 	p_hit[1] 	0.0052998065764023
scalar abilene_cost_network.node[1].content_store 	hits[1] 	685
scalar abilene_cost_network.node[1].content_store 	misses[1] 	128565
scalar abilene_cost_network.node[1].content_store 	decision_yes[1] 	128564
scalar abilene_cost_network.node[1].content_store 	decision_no[1] 	0
scalar abilene_cost_network.node[1].content_store 	decision_ratio[1] 	1
scalar abilene_cost_network.node[2].core_layer 	interests[2] 	128899
scalar abilene_cost_network.node[2].core_layer 	data[2] 	128512
scalar abilene_cost_network.node[2].content_store 	p_hit[2] 	0.0029945926655754
scalar abilene_cost_network.node[2].content_store 	hits[2] 	386
scalar abilene_cost_network.node[2].content_store 	misses[2] 	128513
scalar abilene_cost_network.node[2].content_store 	decision_yes[2] 	128512
scalar abilene_cost_network.node[2].content_store 	decision_no[2] 	0
scalar abilene_cost_network.node[2].content_store 	decision_ratio[2] 	1
scalar abilene_cost_network.node[3].core_layer 	interests[3] 	142383
scalar abilene_cost_network.node[3].core_layer 	data[3] 	130784
scalar abilene_cost_network.node[3].content_store 	p_hit[3] 	0.081435283706622
scalar abilene_cost_network.node[3].content_store 	hits[3] 	11595
scalar abilene_cost_network.node[3].content_store 	misses[3] 	130788
scalar abilene_cost_network.node[3].content_store 	decision_yes[3] 	130758
scalar abilene_cost_network.node[3].content_store 	decision_no[3] 	0
scalar abilene_cost_network.node[3].content_store 	decision_ratio[3] 	1
scalar abilene_cost_network.node[4].core_layer 	interests[4] 	57626
scalar abilene_cost_network.node[4].core_layer 	data[4] 	36989
scalar abilene_cost_network.node[4].content_store 	p_hit[4] 	0.35811959879221
scalar abilene_cost_network.node[4].content_store 	hits[4] 	20637
scalar abilene_cost_network.node[4].content_store 	misses[4] 	36989
scalar abilene_cost_network.node[4].content_store 	decision_yes[4] 	36989
scalar abilene_cost_network.node[4].content_store 	decision_no[4] 	0
scalar abilene_cost_network.node[4].content_store 	decision_ratio[4] 	1
scalar abilene_cost_network.node[5].core_layer 	interests[5] 	249567
scalar abilene_cost_network.node[5].core_layer 	repo_load[5] 	103501
scalar abilene_cost_network.node[5].core_layer 	data[5] 	96615
scalar abilene_cost_network.node[5].content_store 	p_hit[5] 	0.19779057327291
scalar abilene_cost_network.node[5].content_store 	hits[5] 	49362
scalar abilene_cost_network.node[5].content_store 	misses[5] 	200205
scalar abilene_cost_network.node[5].content_store 	decision_yes[5] 	200113
scalar abilene_cost_network.node[5].content_store 	decision_no[5] 	0
scalar abilene_cost_network.node[5].content_store 	decision_ratio[5] 	1
scalar abilene_cost_network.node[6].core_layer 	interests[6] 	199069
scalar abilene_cost_network.node[6].core_layer 	repo_load[6] 	114964
scalar abilene_cost_network.node[6].core_layer 	data[6] 	78470
scalar abilene_cost_network.node[6].content_store 	p_hit[6] 	0.028306768005064
scalar abilene_cost_network.node[6].content_store 	hits[6] 	5635
scalar abilene_cost_network.node[6].content_store 	misses[6] 	193434
scalar abilene_cost_network.node[6].content_store 	decision_yes[6] 	193434
scalar abilene_cost_network.node[6].content_store 	decision_no[6] 	0
scalar abilene_cost_network.node[6].content_store 	decision_ratio[6] 	1
scalar abilene_cost_network.node[7].core_layer 	interests[7] 	308248
scalar abilene_cost_network.node[7].core_layer 	repo_load[7] 	131192
scalar abilene_cost_network.node[7].core_layer 	data[7] 	125594
scalar abilene_cost_network.node[7].content_store 	p_hit[7] 	0.16663206249513
scalar abilene_cost_network.node[7].content_store 	hits[7] 	51364
scalar abilene_cost_network.node[7].content_store 	misses[7] 	256884
scalar abilene_cost_network.node[7].content_store 	decision_yes[7] 	256767
scalar abilene_cost_network.node[7].content_store 	decision_no[7] 	0
scalar abilene_cost_network.node[7].content_store 	decision_ratio[7] 	1
scalar abilene_cost_network.node[8].core_layer 	interests[8] 	0
scalar abilene_cost_network.node[8].core_layer 	data[8] 	0
scalar abilene_cost_network.node[8].content_store 	p_hit[8] 	-nan
scalar abilene_cost_network.node[8].content_store 	hits[8] 	0
scalar abilene_cost_network.node[8].content_store 	misses[8] 	0
scalar abilene_cost_network.node[8].content_store 	decision_yes[8] 	0
scalar abilene_cost_network.node[8].content_store 	decision_no[8] 	0
scalar abilene_cost_network.node[8].content_store 	decision_ratio[8] 	0
scalar abilene_cost_network.node[9].core_layer 	interests[9] 	0
scalar abilene_cost_network.node[9].core_layer 	data[9] 	0
scalar abilene_cost_network.node[9].content_store 	p_hit[9] 	-nan
scalar abilene_cost_network.node[9].content_store 	hits[9] 	0
scalar abilene_cost_network.node[9].content_store 	misses[9] 	0
scalar abilene_cost_network.node[9].content_store 	decision_yes[9] 	0
scalar abilene_cost_network.node[9].content_store 	decision_no[9] 	0
scalar abilene_cost_network.node[9].content_store 	decision_ratio[9] 	0
scalar abilene_cost_network.node[10].core_layer 	interests[10] 	0
scalar abilene_cost_network.node[10].core_layer 	data[10] 	0
scalar abilene_cost_network.node[10].content_store 	p_hit[10] 	-nan
scalar abilene_cost_network.node[10].content_store 	hits[10] 	0
scalar abilene_cost_network.node[10].content_store 	misses[10] 	0
scalar abilene_cost_network.node[10].content_store 	decision_yes[10] 	0
scalar abilene_cost_network.node[10].content_store 	decision_no[10] 	0
scalar abilene_cost_network.node[10].content_store 	decision_ratio[10] 	0
scalar abilene_cost_network.client[0] 	hdistance[0] 	3.8747206688383
scalar abilene_cost_network.client[0] 	downloads[0] 	179894
scalar abilene_cost_network.client[0] 	avg_time[0] 	0.020883717408
scalar abilene_cost_network.client[0] 	interests_sent[0] 	180246
scalar abilene_cost_network.client[5] 	hdistance[5] 	1.4463080361847
scalar abilene_cost_network.client[5] 	downloads[5] 	180297
scalar abilene_cost_network.client[5] 	avg_time[5] 	0.002974440211
scalar abilene_cost_network.client[5] 	interests_sent[5] 	180386
scalar abilene_cost_network.client[7] 	hdistance[7] 	1.3711840180642
scalar abilene_cost_network.client[7] 	downloads[7] 	179803
scalar abilene_cost_network.client[7] 	avg_time[7] 	0.003212919155
scalar abilene_cost_network.client[7] 	interests_sent[7] 	179886
