version 2
run General-7-20150404-02:54:14-27280
attr D fix0.01
attr F nrr
attr R lru
attr a 1.1
attr configname General
attr csize 1e3
attr ctlg 1e5
attr datetime 20150404-02:54:14
attr experiment General
attr inifile omnetpp.ini
attr iterationvars "$rep=1, $net=cost_scenario, $lambda=100, $a=1.1, $ctlg=1e5, $F=nrr, $ttl=10, $D=fix0.01, $R=lru, $csize=1e3, $window=60, $variance=0.05, $mytime=1800000, $kappa=1, $priceratiovalue=10, $splits=0.333_0.333_0.334, $pricebits=0"
attr iterationvars2 "$rep=1, $net=cost_scenario, $lambda=100, $a=1.1, $ctlg=1e5, $F=nrr, $ttl=10, $D=fix0.01, $R=lru, $csize=1e3, $window=60, $variance=0.05, $mytime=1800000, $kappa=1, $priceratiovalue=10, $splits=0.333_0.333_0.334, $pricebits=0, $repetition=0"
attr kappa 1
attr lambda 100
attr measurement "$rep=1, $net=cost_scenario, $lambda=100, $a=1.1, $ctlg=1e5, $F=nrr, $ttl=10, $D=fix0.01, $R=lru, $csize=1e3, $window=60, $variance=0.05, $mytime=1800000, $kappa=1, $priceratiovalue=10, $splits=0.333_0.333_0.334, $pricebits=0"
attr mytime 1800000
attr net cost_scenario
attr network networks.${net=cost_scenario}_network
attr pricebits 0
attr priceratiovalue 10
attr processid 27280
attr rep 1
attr repetition 0
attr replication #0
attr resultdir results
attr runnumber 7
attr seedset 1
attr splits 0.333_0.333_0.334
attr ttl 10
attr variance 0.05
attr window 60

scalar . 	a 	1.1
scalar . 	csize 	1e3
scalar . 	ctlg 	1e5
scalar . 	kappa 	1
scalar . 	lambda 	100
scalar . 	mytime 	1800000
scalar . 	pricebits 	0
scalar . 	priceratiovalue 	10
scalar . 	rep 	1
scalar . 	ttl 	10
scalar . 	variance 	0.05
scalar . 	window 	60
scalar cost_scenario_network.content_distribution 	repo-0 	1
scalar cost_scenario_network.content_distribution 	repo-1 	2
scalar cost_scenario_network.content_distribution 	repo-2 	3
scalar cost_scenario_network.content_distribution 	client-0 	0
scalar cost_scenario_network.content_distribution 	repo-0_card 	33396
scalar cost_scenario_network.content_distribution 	repo-0_price 	1
scalar cost_scenario_network.content_distribution 	repo-1_card 	33040
scalar cost_scenario_network.content_distribution 	repo-1_price 	0
scalar cost_scenario_network.content_distribution 	repo-2_card 	33564
scalar cost_scenario_network.content_distribution 	repo-2_price 	10
scalar cost_scenario_network.statistics 	repo_popularity[0] 	0.27512545107468
scalar cost_scenario_network.statistics 	repo_popularity[1] 	0.29446160325733
scalar cost_scenario_network.statistics 	repo_popularity[2] 	0.43041294566797
scalar cost_scenario_network.statistics 	stabilization_time 	2434
scalar cost_scenario_network.statistics 	p_hit 	0.58354773622009
scalar cost_scenario_network.statistics 	interests 	56838476
scalar cost_scenario_network.statistics 	data 	11835256
scalar cost_scenario_network.statistics 	hdistance 	0.52597374143453
scalar cost_scenario_network.statistics 	avg_time 	0
scalar cost_scenario_network.statistics 	downloads 	180012880
scalar cost_scenario_network.statistics 	total_cost 	176912823
scalar cost_scenario_network.statistics 	total_replicas 	100000
scalar cost_scenario_network.statistics 	inner_hit 	0.73701312928275
scalar cost_scenario_network.statistics 	interests_sent 	180012880
scalar cost_scenario_network.node[0].core_layer 	interests[0] 	180012880
scalar cost_scenario_network.node[0].core_layer 	data[0] 	47341024
scalar cost_scenario_network.node[0].core_layer 	repo_int[0] 	47341024
scalar cost_scenario_network.node[0].content_store 	p_hit[0] 	0.73701312928275
scalar cost_scenario_network.node[0].content_store 	hits[0] 	132671856
scalar cost_scenario_network.node[0].content_store 	misses[0] 	47341024
scalar cost_scenario_network.node[0].content_store 	decision_yes[0] 	474031
scalar cost_scenario_network.node[0].content_store 	decision_no[0] 	46866993
scalar cost_scenario_network.node[0].content_store 	decision_ratio[0] 	0.01001311251738
scalar cost_scenario_network.node[0].content_store 	cache_value[0] 	26.590316994414
scalar cost_scenario_network.node[0].content_store 	average_price_of_cache[0] 	3.526
scalar cost_scenario_network.node[1].core_layer 	interests[1] 	15882943
scalar cost_scenario_network.node[1].core_layer 	repo_load[1] 	15882943
scalar cost_scenario_network.node[1].core_layer 	data[1] 	0
scalar cost_scenario_network.node[1].content_store 	p_hit[1] 	0
scalar cost_scenario_network.node[1].content_store 	hits[1] 	0
scalar cost_scenario_network.node[1].content_store 	misses[1] 	15882943
scalar cost_scenario_network.node[1].content_store 	decision_yes[1] 	0
scalar cost_scenario_network.node[1].content_store 	decision_no[1] 	15882943
scalar cost_scenario_network.node[1].content_store 	decision_ratio[1] 	0
scalar cost_scenario_network.node[1].content_store 	cache_value[1] 	1.8028660948056e-316
scalar cost_scenario_network.node[1].content_store 	average_price_of_cache[1] 	-nan
scalar cost_scenario_network.node[2].core_layer 	interests[2] 	15355093
scalar cost_scenario_network.node[2].core_layer 	repo_load[2] 	15355093
scalar cost_scenario_network.node[2].core_layer 	data[2] 	0
scalar cost_scenario_network.node[2].content_store 	p_hit[2] 	0
scalar cost_scenario_network.node[2].content_store 	hits[2] 	0
scalar cost_scenario_network.node[2].content_store 	misses[2] 	15355093
scalar cost_scenario_network.node[2].content_store 	decision_yes[2] 	0
scalar cost_scenario_network.node[2].content_store 	decision_no[2] 	15355093
scalar cost_scenario_network.node[2].content_store 	decision_ratio[2] 	0
scalar cost_scenario_network.node[2].content_store 	cache_value[2] 	1.8030249863173e-316
scalar cost_scenario_network.node[2].content_store 	average_price_of_cache[2] 	-nan
scalar cost_scenario_network.node[3].core_layer 	interests[3] 	16102988
scalar cost_scenario_network.node[3].core_layer 	repo_load[3] 	16102988
scalar cost_scenario_network.node[3].core_layer 	data[3] 	0
scalar cost_scenario_network.node[3].content_store 	p_hit[3] 	0
scalar cost_scenario_network.node[3].content_store 	hits[3] 	0
scalar cost_scenario_network.node[3].content_store 	misses[3] 	16102988
scalar cost_scenario_network.node[3].content_store 	decision_yes[3] 	0
scalar cost_scenario_network.node[3].content_store 	decision_no[3] 	16102988
scalar cost_scenario_network.node[3].content_store 	decision_ratio[3] 	0
scalar cost_scenario_network.node[3].content_store 	cache_value[3] 	1.803183877829e-316
scalar cost_scenario_network.node[3].content_store 	average_price_of_cache[3] 	-nan
scalar cost_scenario_network.client[0] 	hdistance[0] 	0.52597374143453
scalar cost_scenario_network.client[0] 	downloads[0] 	180012880
scalar cost_scenario_network.client[0] 	avg_time[0] 	0
scalar cost_scenario_network.client[0] 	interests_sent[0] 	180012880
