version 2
run General-6-20150720-22:20:22-25317
attr C 1e6
attr D lce
attr F spr
attr R lru
attr a 1
attr brates 1
attr configname General
attr ctlg 1e8
attr datetime 20150720-22:20:22
attr experiment General
attr inifile omnetpp.ini
attr iterationvars "$net=abilene_nodelay, $rep=3, $lambda=100, $a=1, $ctlg=1e8, $brates=1, $F=spr, $ttl=1000, $D=lce, $R=lru, $C=1e6, $window=60, $variance=0.05, $mytime=180000"
attr iterationvars2 "$net=abilene_nodelay, $rep=3, $lambda=100, $a=1, $ctlg=1e8, $brates=1, $F=spr, $ttl=1000, $D=lce, $R=lru, $C=1e6, $window=60, $variance=0.05, $mytime=180000, $repetition=0"
attr lambda 100
attr measurement "$net=abilene_nodelay, $rep=3, $lambda=100, $a=1, $ctlg=1e8, $brates=1, $F=spr, $ttl=1000, $D=lce, $R=lru, $C=1e6, $window=60, $variance=0.05, $mytime=180000"
attr mytime 180000
attr net abilene_nodelay
attr network networks.${net=abilene_nodelay}_network
attr processid 25317
attr rep 3
attr repetition 0
attr replication #0
attr resultdir results
attr runnumber 6
attr seedset 3
attr ttl 1000
attr variance 0.05
attr window 60

scalar . 	C 	1e6
scalar . 	a 	1
scalar . 	brates 	1
scalar . 	ctlg 	1e8
scalar . 	lambda 	100
scalar . 	mytime 	180000
scalar . 	rep 	3
scalar . 	ttl 	1000
scalar . 	variance 	0.05
scalar . 	window 	60
scalar abilene_nodelay_network.content_distribution 	repo-0 	9
scalar abilene_nodelay_network.content_distribution 	repo-1 	4
scalar abilene_nodelay_network.content_distribution 	repo-2 	0
scalar abilene_nodelay_network.content_distribution 	repo-3 	1
scalar abilene_nodelay_network.content_distribution 	repo-4 	10
scalar abilene_nodelay_network.content_distribution 	repo-5 	8
scalar abilene_nodelay_network.content_distribution 	repo-6 	6
scalar abilene_nodelay_network.content_distribution 	repo-7 	3
scalar abilene_nodelay_network.content_distribution 	repo-8 	5
scalar abilene_nodelay_network.content_distribution 	repo-9 	2
scalar abilene_nodelay_network.content_distribution 	repo-10 	7
scalar abilene_nodelay_network.content_distribution 	client-0 	8
scalar abilene_nodelay_network.content_distribution 	client-1 	10
scalar abilene_nodelay_network.content_distribution 	client-2 	9
scalar abilene_nodelay_network.content_distribution 	client-3 	2
scalar abilene_nodelay_network.content_distribution 	client-4 	0
scalar abilene_nodelay_network.content_distribution 	client-5 	6
scalar abilene_nodelay_network.content_distribution 	client-6 	7
scalar abilene_nodelay_network.content_distribution 	client-7 	1
scalar abilene_nodelay_network.content_distribution 	client-8 	4
scalar abilene_nodelay_network.content_distribution 	client-9 	5
scalar abilene_nodelay_network.content_distribution 	client-10 	3
scalar abilene_nodelay_network.content_distribution 	repo-0_card 	9090253
scalar abilene_nodelay_network.content_distribution 	repo-0_price 	0
scalar abilene_nodelay_network.content_distribution 	repo-1_card 	9092912
scalar abilene_nodelay_network.content_distribution 	repo-1_price 	0
scalar abilene_nodelay_network.content_distribution 	repo-2_card 	9089959
scalar abilene_nodelay_network.content_distribution 	repo-2_price 	0
scalar abilene_nodelay_network.content_distribution 	repo-3_card 	9087600
scalar abilene_nodelay_network.content_distribution 	repo-3_price 	0
scalar abilene_nodelay_network.content_distribution 	repo-4_card 	9091845
scalar abilene_nodelay_network.content_distribution 	repo-4_price 	0
scalar abilene_nodelay_network.content_distribution 	repo-5_card 	9096523
scalar abilene_nodelay_network.content_distribution 	repo-5_price 	0
scalar abilene_nodelay_network.content_distribution 	repo-6_card 	9091236
scalar abilene_nodelay_network.content_distribution 	repo-6_price 	0
scalar abilene_nodelay_network.content_distribution 	repo-7_card 	9088149
scalar abilene_nodelay_network.content_distribution 	repo-7_price 	0
scalar abilene_nodelay_network.content_distribution 	repo-8_card 	9087263
scalar abilene_nodelay_network.content_distribution 	repo-8_price 	0
scalar abilene_nodelay_network.content_distribution 	repo-9_card 	9094413
scalar abilene_nodelay_network.content_distribution 	repo-9_price 	0
scalar abilene_nodelay_network.content_distribution 	repo-10_card 	9089847
scalar abilene_nodelay_network.content_distribution 	repo-10_price 	0
scalar abilene_nodelay_network.statistics 	stabilization_time 	30530.6
scalar abilene_nodelay_network.statistics 	p_hit 	0.37684816401063
scalar abilene_nodelay_network.statistics 	interests 	30541692.454545
scalar abilene_nodelay_network.statistics 	data 	12542382.818182
scalar abilene_nodelay_network.statistics 	hdistance 	1.0573757766821
scalar abilene_nodelay_network.statistics 	avg_time 	0
scalar abilene_nodelay_network.statistics 	downloads 	197992406
scalar abilene_nodelay_network.statistics 	total_cost 	0
scalar abilene_nodelay_network.statistics 	total_replicas 	100000000
scalar abilene_nodelay_network.statistics 	"representations_downloaded 1:" 	0
scalar abilene_nodelay_network.statistics 	"slots_per_representation 100:" 	0
scalar abilene_nodelay_network.statistics 	inner_hit 	0.63944567651751
scalar abilene_nodelay_network.statistics 	execution_time 	12269
scalar abilene_nodelay_network.node[0].core_layer 	interests[0] 	22623030
scalar abilene_nodelay_network.node[0].core_layer 	repo_load[0] 	6398642
scalar abilene_nodelay_network.node[0].core_layer 	data[0] 	5486721
scalar abilene_nodelay_network.node[0].core_layer 	slots_sent[face$o[1]->client[0]] 	1800266100
scalar abilene_nodelay_network.node[0].core_layer 	slots_sent[face$o[2]->node[1]] 	359525400
scalar abilene_nodelay_network.node[0].core_layer 	slots_sent[face$o[3]->node[10]] 	102511500
scalar abilene_nodelay_network.node[0].content_store 	p_hit[0] 	0.47463434385226
scalar abilene_nodelay_network.node[0].content_store 	hits[0] 	10737667
scalar abilene_nodelay_network.node[0].content_store 	misses[0] 	11885363
scalar abilene_nodelay_network.node[0].content_store 	decision_yes[0] 	5486721
scalar abilene_nodelay_network.node[0].content_store 	decision_no[0] 	6398642
scalar abilene_nodelay_network.node[0].content_store 	decision_ratio[0] 	0.46163680486662
scalar abilene_nodelay_network.node[1].core_layer 	interests[1] 	34633270
scalar abilene_nodelay_network.node[1].core_layer 	repo_load[1] 	6618348
scalar abilene_nodelay_network.node[1].core_layer 	data[1] 	16309968
scalar abilene_nodelay_network.node[1].core_layer 	slots_sent[face$o[1]->client[1]] 	1799020900
scalar abilene_nodelay_network.node[1].core_layer 	slots_sent[face$o[2]->node[0]] 	438891400
scalar abilene_nodelay_network.node[1].core_layer 	slots_sent[face$o[3]->node[10]] 	332362300
scalar abilene_nodelay_network.node[1].core_layer 	slots_sent[face$o[4]->node[2]] 	893052400
scalar abilene_nodelay_network.node[1].content_store 	p_hit[1] 	0.33796849099147
scalar abilene_nodelay_network.node[1].content_store 	hits[1] 	11704954
scalar abilene_nodelay_network.node[1].content_store 	misses[1] 	22928316
scalar abilene_nodelay_network.node[1].content_store 	decision_yes[1] 	16309968
scalar abilene_nodelay_network.node[1].content_store 	decision_no[1] 	6618348
scalar abilene_nodelay_network.node[1].content_store 	decision_ratio[1] 	0.71134609275273
scalar abilene_nodelay_network.node[2].core_layer 	interests[2] 	43731571
scalar abilene_nodelay_network.node[2].core_layer 	repo_load[2] 	6751244
scalar abilene_nodelay_network.node[2].core_layer 	data[2] 	24558245
scalar abilene_nodelay_network.node[2].core_layer 	slots_sent[face$o[1]->client[2]] 	1799702100
scalar abilene_nodelay_network.node[2].core_layer 	slots_sent[face$o[2]->node[1]] 	963108200
scalar abilene_nodelay_network.node[2].core_layer 	slots_sent[face$o[3]->node[3]] 	1153658500
scalar abilene_nodelay_network.node[2].core_layer 	slots_sent[face$o[4]->node[8]] 	456688300
scalar abilene_nodelay_network.node[2].content_store 	p_hit[2] 	0.28405295570104
scalar abilene_nodelay_network.node[2].content_store 	hits[2] 	12422082
scalar abilene_nodelay_network.node[2].content_store 	misses[2] 	31309489
scalar abilene_nodelay_network.node[2].content_store 	decision_yes[2] 	24558245
scalar abilene_nodelay_network.node[2].content_store 	decision_no[2] 	6751244
scalar abilene_nodelay_network.node[2].content_store 	decision_ratio[2] 	0.78437067433454
scalar abilene_nodelay_network.node[3].core_layer 	interests[3] 	41543097
scalar abilene_nodelay_network.node[3].core_layer 	repo_load[3] 	6451761
scalar abilene_nodelay_network.node[3].core_layer 	data[3] 	22541208
scalar abilene_nodelay_network.node[3].core_layer 	slots_sent[face$o[1]->client[3]] 	1799817800
scalar abilene_nodelay_network.node[3].core_layer 	slots_sent[face$o[2]->node[2]] 	1133301200
scalar abilene_nodelay_network.node[3].core_layer 	slots_sent[face$o[3]->node[4]] 	711661000
scalar abilene_nodelay_network.node[3].core_layer 	slots_sent[face$o[4]->node[7]] 	509529700
scalar abilene_nodelay_network.node[3].content_store 	p_hit[3] 	0.3020989985412
scalar abilene_nodelay_network.node[3].content_store 	hits[3] 	12550128
scalar abilene_nodelay_network.node[3].content_store 	misses[3] 	28992969
scalar abilene_nodelay_network.node[3].content_store 	decision_yes[3] 	22541208
scalar abilene_nodelay_network.node[3].content_store 	decision_no[3] 	6451761
scalar abilene_nodelay_network.node[3].content_store 	decision_ratio[3] 	0.77747153111501
scalar abilene_nodelay_network.node[4].core_layer 	interests[4] 	28120751
scalar abilene_nodelay_network.node[4].core_layer 	repo_load[4] 	6410992
scalar abilene_nodelay_network.node[4].core_layer 	data[4] 	10356899
scalar abilene_nodelay_network.node[4].core_layer 	slots_sent[face$o[1]->client[4]] 	1799449100
scalar abilene_nodelay_network.node[4].core_layer 	slots_sent[face$o[2]->node[3]] 	631139000
scalar abilene_nodelay_network.node[4].core_layer 	slots_sent[face$o[3]->node[5]] 	381487000
scalar abilene_nodelay_network.node[4].content_store 	p_hit[4] 	0.4037182364013
scalar abilene_nodelay_network.node[4].content_store 	hits[4] 	11352860
scalar abilene_nodelay_network.node[4].content_store 	misses[4] 	16767891
scalar abilene_nodelay_network.node[4].content_store 	decision_yes[4] 	10356899
scalar abilene_nodelay_network.node[4].content_store 	decision_no[4] 	6410992
scalar abilene_nodelay_network.node[4].content_store 	decision_ratio[4] 	0.61766259096031
scalar abilene_nodelay_network.node[5].core_layer 	interests[5] 	23664113
scalar abilene_nodelay_network.node[5].core_layer 	repo_load[5] 	5731954
scalar abilene_nodelay_network.node[5].core_layer 	data[5] 	6504266
scalar abilene_nodelay_network.node[5].core_layer 	slots_sent[face$o[1]->client[5]] 	1799939700
scalar abilene_nodelay_network.node[5].core_layer 	slots_sent[face$o[2]->node[4]] 	324028900
scalar abilene_nodelay_network.node[5].core_layer 	slots_sent[face$o[3]->node[6]] 	242442700
scalar abilene_nodelay_network.node[5].content_store 	p_hit[5] 	0.48292082614717
scalar abilene_nodelay_network.node[5].content_store 	hits[5] 	11427893
scalar abilene_nodelay_network.node[5].content_store 	misses[5] 	12236220
scalar abilene_nodelay_network.node[5].content_store 	decision_yes[5] 	6504266
scalar abilene_nodelay_network.node[5].content_store 	decision_no[5] 	5731954
scalar abilene_nodelay_network.node[5].content_store 	decision_ratio[5] 	0.53155843879891
scalar abilene_nodelay_network.node[6].core_layer 	interests[6] 	25793092
scalar abilene_nodelay_network.node[6].core_layer 	repo_load[6] 	5856197
scalar abilene_nodelay_network.node[6].core_layer 	data[6] 	8454085
scalar abilene_nodelay_network.node[6].core_layer 	slots_sent[face$o[1]->client[6]] 	1800770200
scalar abilene_nodelay_network.node[6].core_layer 	slots_sent[face$o[2]->node[5]] 	268939600
scalar abilene_nodelay_network.node[6].core_layer 	slots_sent[face$o[3]->node[7]] 	509599400
scalar abilene_nodelay_network.node[6].content_store 	p_hit[6] 	0.44518935535143
scalar abilene_nodelay_network.node[6].content_store 	hits[6] 	11482810
scalar abilene_nodelay_network.node[6].content_store 	misses[6] 	14310282
scalar abilene_nodelay_network.node[6].content_store 	decision_yes[6] 	8454085
scalar abilene_nodelay_network.node[6].content_store 	decision_no[6] 	5856197
scalar abilene_nodelay_network.node[6].content_store 	decision_ratio[6] 	0.59076997923591
scalar abilene_nodelay_network.node[7].core_layer 	interests[7] 	32882992
scalar abilene_nodelay_network.node[7].core_layer 	repo_load[7] 	6553959
scalar abilene_nodelay_network.node[7].core_layer 	data[7] 	14369287
scalar abilene_nodelay_network.node[7].core_layer 	slots_sent[face$o[1]->client[7]] 	1800426900
scalar abilene_nodelay_network.node[7].core_layer 	slots_sent[face$o[2]->node[3]] 	469323300
scalar abilene_nodelay_network.node[7].core_layer 	slots_sent[face$o[3]->node[6]] 	602965800
scalar abilene_nodelay_network.node[7].core_layer 	slots_sent[face$o[4]->node[8]] 	415583200
scalar abilene_nodelay_network.node[7].content_store 	p_hit[7] 	0.36370613720309
scalar abilene_nodelay_network.node[7].content_store 	hits[7] 	11959746
scalar abilene_nodelay_network.node[7].content_store 	misses[7] 	20923246
scalar abilene_nodelay_network.node[7].content_store 	decision_yes[7] 	14369287
scalar abilene_nodelay_network.node[7].content_store 	decision_no[7] 	6553959
scalar abilene_nodelay_network.node[7].content_store 	decision_ratio[7] 	0.68676184374069
scalar abilene_nodelay_network.node[8].core_layer 	interests[8] 	31932884
scalar abilene_nodelay_network.node[8].core_layer 	repo_load[8] 	6648336
scalar abilene_nodelay_network.node[8].core_layer 	data[8] 	13416418
scalar abilene_nodelay_network.node[8].core_layer 	slots_sent[face$o[1]->client[8]] 	1799707900
scalar abilene_nodelay_network.node[8].core_layer 	slots_sent[face$o[2]->node[2]] 	429470900
scalar abilene_nodelay_network.node[8].core_layer 	slots_sent[face$o[3]->node[7]] 	417799600
scalar abilene_nodelay_network.node[8].core_layer 	slots_sent[face$o[4]->node[9]] 	546310000
scalar abilene_nodelay_network.node[8].content_store 	p_hit[8] 	0.37165856989303
scalar abilene_nodelay_network.node[8].content_store 	hits[8] 	11868130
scalar abilene_nodelay_network.node[8].content_store 	misses[8] 	20064754
scalar abilene_nodelay_network.node[8].content_store 	decision_yes[8] 	13416418
scalar abilene_nodelay_network.node[8].content_store 	decision_no[8] 	6648336
scalar abilene_nodelay_network.node[8].content_store 	decision_ratio[8] 	0.66865599249311
scalar abilene_nodelay_network.node[9].core_layer 	interests[9] 	25842981
scalar abilene_nodelay_network.node[9].core_layer 	repo_load[9] 	7394369
scalar abilene_nodelay_network.node[9].core_layer 	data[9] 	8472956
scalar abilene_nodelay_network.node[9].core_layer 	slots_sent[face$o[1]->client[9]] 	1800185800
scalar abilene_nodelay_network.node[9].core_layer 	slots_sent[face$o[2]->node[10]] 	314742000
scalar abilene_nodelay_network.node[9].core_layer 	slots_sent[face$o[3]->node[8]] 	469370300
scalar abilene_nodelay_network.node[9].content_store 	p_hit[9] 	0.3860102671592
scalar abilene_nodelay_network.node[9].content_store 	hits[9] 	9975656
scalar abilene_nodelay_network.node[9].content_store 	misses[9] 	15867325
scalar abilene_nodelay_network.node[9].content_store 	decision_yes[9] 	8472956
scalar abilene_nodelay_network.node[9].content_store 	decision_no[9] 	7394369
scalar abilene_nodelay_network.node[9].content_store 	decision_ratio[9] 	0.53398767593151
scalar abilene_nodelay_network.node[10].core_layer 	interests[10] 	25190836
scalar abilene_nodelay_network.node[10].core_layer 	repo_load[10] 	6571216
scalar abilene_nodelay_network.node[10].core_layer 	data[10] 	7496158
scalar abilene_nodelay_network.node[10].core_layer 	slots_sent[face$o[1]->client[10]] 	1799954100
scalar abilene_nodelay_network.node[10].core_layer 	slots_sent[face$o[2]->node[0]] 	109780700
scalar abilene_nodelay_network.node[10].core_layer 	slots_sent[face$o[3]->node[1]] 	308363200
scalar abilene_nodelay_network.node[10].core_layer 	slots_sent[face$o[4]->node[9]] 	300985600
scalar abilene_nodelay_network.node[10].content_store 	p_hit[10] 	0.44156779870267
scalar abilene_nodelay_network.node[10].content_store 	hits[10] 	11123462
scalar abilene_nodelay_network.node[10].content_store 	misses[10] 	14067374
scalar abilene_nodelay_network.node[10].content_store 	decision_yes[10] 	7496158
scalar abilene_nodelay_network.node[10].content_store 	decision_no[10] 	6571216
scalar abilene_nodelay_network.node[10].content_store 	decision_ratio[10] 	0.53287543218798
scalar abilene_nodelay_network.client[0] 	hdistance[0].real 	1.1754008476857
scalar abilene_nodelay_network.client[0] 	downloads[0].real 	18002661
scalar abilene_nodelay_network.client[0] 	avg_time[0].real 	0
scalar abilene_nodelay_network.client[1] 	hdistance[1].real 	1.0571030608927
scalar abilene_nodelay_network.client[1] 	downloads[1].real 	17990209
scalar abilene_nodelay_network.client[1] 	avg_time[1].real 	0
scalar abilene_nodelay_network.client[2] 	hdistance[2].real 	0.95361037807314
scalar abilene_nodelay_network.client[2] 	downloads[2].real 	17997021
scalar abilene_nodelay_network.client[2] 	avg_time[2].real 	0
scalar abilene_nodelay_network.client[3] 	hdistance[3].real 	0.96498184427336
scalar abilene_nodelay_network.client[3] 	downloads[3].real 	17998178
scalar abilene_nodelay_network.client[3] 	avg_time[3].real 	0
scalar abilene_nodelay_network.client[4] 	hdistance[4].real 	1.1102603013334
scalar abilene_nodelay_network.client[4] 	downloads[4].real 	17994491
scalar abilene_nodelay_network.client[4] 	avg_time[4].real 	0
scalar abilene_nodelay_network.client[5] 	hdistance[5].real 	1.1495085640923
scalar abilene_nodelay_network.client[5] 	downloads[5].real 	17999397
scalar abilene_nodelay_network.client[5] 	avg_time[5].real 	0
scalar abilene_nodelay_network.client[6] 	hdistance[6].real 	1.1031539726722
scalar abilene_nodelay_network.client[6] 	downloads[6].real 	18007702
scalar abilene_nodelay_network.client[6] 	avg_time[6].real 	0
scalar abilene_nodelay_network.client[7] 	hdistance[7].real 	0.97189127756312
scalar abilene_nodelay_network.client[7] 	downloads[7].real 	18004269
scalar abilene_nodelay_network.client[7] 	avg_time[7].real 	0
scalar abilene_nodelay_network.client[8] 	hdistance[8].real 	0.94337353300498
scalar abilene_nodelay_network.client[8] 	downloads[8].real 	17997079
scalar abilene_nodelay_network.client[8] 	avg_time[8].real 	0
scalar abilene_nodelay_network.client[9] 	hdistance[9].real 	1.1121703104201
scalar abilene_nodelay_network.client[9] 	downloads[9].real 	18001858
scalar abilene_nodelay_network.client[9] 	avg_time[9].real 	0
scalar abilene_nodelay_network.client[10] 	hdistance[10].real 	1.0896794534925
scalar abilene_nodelay_network.client[10] 	downloads[10].real 	17999541
scalar abilene_nodelay_network.client[10] 	avg_time[10].real 	0
