version 2
run General-4-20140627-14:59:19-14563
attr D never
attr F spr
attr R lru
attr a 1
attr configname General
attr csize 1e3
attr ctlg 1e5
attr datetime 20140627-14:59:19
attr experiment General
attr inifile omnetpp.ini
attr iterationvars "$net=abilene_cost, $rep=1, $priceratiovalue=10, $weights=0.333_0.333_0.334, $lambda=100, $a=1, $ctlg=1e5, $F=spr, $ttl=1000, $D=never, $xi=1, $R=lru, $csize=1e3, $pricebits=0, $window=600, $variance=0.005, $mytime=1800"
attr iterationvars2 "$net=abilene_cost, $rep=1, $priceratiovalue=10, $weights=0.333_0.333_0.334, $lambda=100, $a=1, $ctlg=1e5, $F=spr, $ttl=1000, $D=never, $xi=1, $R=lru, $csize=1e3, $pricebits=0, $window=600, $variance=0.005, $mytime=1800, $repetition=0"
attr lambda 100
attr measurement "$net=abilene_cost, $rep=1, $priceratiovalue=10, $weights=0.333_0.333_0.334, $lambda=100, $a=1, $ctlg=1e5, $F=spr, $ttl=1000, $D=never, $xi=1, $R=lru, $csize=1e3, $pricebits=0, $window=600, $variance=0.005, $mytime=1800"
attr mytime 1800
attr net abilene_cost
attr network "networks.${net=geant_cost, abilene_cost}_network"
attr pricebits 0
attr priceratiovalue 10
attr processid 14563
attr rep 1
attr repetition 0
attr replication #0
attr resultdir results
attr runnumber 4
attr seedset 1
attr ttl 1000
attr variance 0.005
attr weights 0.333_0.333_0.334
attr window 600
attr xi 1

scalar . 	a 	1
scalar . 	csize 	1e3
scalar . 	ctlg 	1e5
scalar . 	lambda 	100
scalar . 	mytime 	1800
scalar . 	pricebits 	0
scalar . 	priceratiovalue 	10
scalar . 	rep 	1
scalar . 	ttl 	1000
scalar . 	variance 	0.005
scalar . 	window 	600
scalar . 	xi 	1
scalar abilene_cost_network.content_distribution 	repo-0 	11
scalar abilene_cost_network.content_distribution 	repo-1 	12
scalar abilene_cost_network.content_distribution 	repo-2 	13
scalar abilene_cost_network.content_distribution 	client-0 	5
scalar abilene_cost_network.content_distribution 	client-1 	0
scalar abilene_cost_network.content_distribution 	client-2 	9
scalar abilene_cost_network.content_distribution 	repo-0_card 	33396
scalar abilene_cost_network.content_distribution 	repo-1_card 	33039
scalar abilene_cost_network.content_distribution 	repo-2_card 	33565
scalar abilene_cost_network.statistics 	repo_popularity[0] 	0.28686251265602
scalar abilene_cost_network.statistics 	repo_popularity[1] 	0.2886063426465
scalar abilene_cost_network.statistics 	repo_popularity[2] 	0.42453114469748
scalar abilene_cost_network.statistics 	stabilization_time 	36600
scalar abilene_cost_network.node[1].face$o[4].channel 	price[1] 	0
scalar abilene_cost_network.node[1].face$o[4].channel 	represented_price[1] 	0
scalar abilene_cost_network.node[7].face$o[4].channel 	price[7] 	0
scalar abilene_cost_network.node[7].face$o[4].channel 	represented_price[7] 	0
scalar abilene_cost_network.node[10].face$o[4].channel 	price[10] 	0
scalar abilene_cost_network.node[10].face$o[4].channel 	represented_price[10] 	0
scalar abilene_cost_network.node[11].face$o[1].channel 	price[11] 	0
scalar abilene_cost_network.node[11].face$o[1].channel 	represented_price[11] 	0
scalar abilene_cost_network.node[12].face$o[1].channel 	price[12] 	1
scalar abilene_cost_network.node[12].face$o[1].channel 	represented_price[12] 	1
scalar abilene_cost_network.node[13].face$o[1].channel 	price[13] 	10
scalar abilene_cost_network.node[13].face$o[1].channel 	represented_price[13] 	10
scalar abilene_cost_network.statistics 	p_hit 	0
scalar abilene_cost_network.statistics 	interests 	168261.85714286
scalar abilene_cost_network.statistics 	data 	129752.21428571
scalar abilene_cost_network.statistics 	hdistance 	4.4263713519173
scalar abilene_cost_network.statistics 	avg_time 	0.015573197814
scalar abilene_cost_network.statistics 	downloads 	530701
scalar abilene_cost_network.statistics 	total_cost 	2372451
scalar abilene_cost_network.statistics 	total_replicas 	100000
scalar abilene_cost_network.statistics 	inner_hit 	3.7686003983411e-06
scalar abilene_cost_network.statistics 	interests_sent 	539144
scalar abilene_cost_network.node[0].core_layer 	interests[0] 	179633
scalar abilene_cost_network.node[0].core_layer 	data[0] 	177293
scalar abilene_cost_network.node[0].core_layer 	repo_int[0] 	530699
scalar abilene_cost_network.node[0].content_store 	p_hit[0] 	0
scalar abilene_cost_network.node[0].content_store 	hits[0] 	0
scalar abilene_cost_network.node[0].content_store 	misses[0] 	179633
scalar abilene_cost_network.node[0].content_store 	decision_yes[0] 	0
scalar abilene_cost_network.node[0].content_store 	decision_no[0] 	177293
scalar abilene_cost_network.node[0].content_store 	decision_ratio[0] 	0
scalar abilene_cost_network.node[1].core_layer 	interests[1] 	324073
scalar abilene_cost_network.node[1].core_layer 	data[1] 	324074
scalar abilene_cost_network.node[1].content_store 	p_hit[1] 	0
scalar abilene_cost_network.node[1].content_store 	hits[1] 	0
scalar abilene_cost_network.node[1].content_store 	misses[1] 	324073
scalar abilene_cost_network.node[1].content_store 	decision_yes[1] 	0
scalar abilene_cost_network.node[1].content_store 	decision_no[1] 	324074
scalar abilene_cost_network.node[1].content_store 	decision_ratio[1] 	0
scalar abilene_cost_network.node[2].core_layer 	interests[2] 	175422
scalar abilene_cost_network.node[2].core_layer 	data[2] 	175424
scalar abilene_cost_network.node[2].content_store 	p_hit[2] 	0
scalar abilene_cost_network.node[2].content_store 	hits[2] 	0
scalar abilene_cost_network.node[2].content_store 	misses[2] 	175422
scalar abilene_cost_network.node[2].content_store 	decision_yes[2] 	0
scalar abilene_cost_network.node[2].content_store 	decision_no[2] 	175424
scalar abilene_cost_network.node[2].content_store 	decision_ratio[2] 	0
scalar abilene_cost_network.node[3].core_layer 	interests[3] 	175422
scalar abilene_cost_network.node[3].core_layer 	data[3] 	175423
scalar abilene_cost_network.node[3].content_store 	p_hit[3] 	0
scalar abilene_cost_network.node[3].content_store 	hits[3] 	0
scalar abilene_cost_network.node[3].content_store 	misses[3] 	175422
scalar abilene_cost_network.node[3].content_store 	decision_yes[3] 	0
scalar abilene_cost_network.node[3].content_store 	decision_no[3] 	175423
scalar abilene_cost_network.node[3].content_store 	decision_ratio[3] 	0
scalar abilene_cost_network.node[4].core_layer 	interests[4] 	123924
scalar abilene_cost_network.node[4].core_layer 	data[4] 	123925
scalar abilene_cost_network.node[4].content_store 	p_hit[4] 	0
scalar abilene_cost_network.node[4].content_store 	hits[4] 	0
scalar abilene_cost_network.node[4].content_store 	misses[4] 	123924
scalar abilene_cost_network.node[4].content_store 	decision_yes[4] 	0
scalar abilene_cost_network.node[4].content_store 	decision_no[4] 	123925
scalar abilene_cost_network.node[4].content_store 	decision_ratio[4] 	0
scalar abilene_cost_network.node[5].core_layer 	interests[5] 	179533
scalar abilene_cost_network.node[5].core_layer 	data[5] 	175941
scalar abilene_cost_network.node[5].content_store 	p_hit[5] 	0
scalar abilene_cost_network.node[5].content_store 	hits[5] 	0
scalar abilene_cost_network.node[5].content_store 	misses[5] 	179533
scalar abilene_cost_network.node[5].content_store 	decision_yes[5] 	0
scalar abilene_cost_network.node[5].content_store 	decision_no[5] 	175941
scalar abilene_cost_network.node[5].content_store 	decision_ratio[5] 	0
scalar abilene_cost_network.node[6].core_layer 	interests[6] 	52016
scalar abilene_cost_network.node[6].core_layer 	data[6] 	52016
scalar abilene_cost_network.node[6].content_store 	p_hit[6] 	0
scalar abilene_cost_network.node[6].content_store 	hits[6] 	0
scalar abilene_cost_network.node[6].content_store 	misses[6] 	52016
scalar abilene_cost_network.node[6].content_store 	decision_yes[6] 	0
scalar abilene_cost_network.node[6].content_store 	decision_no[6] 	52016
scalar abilene_cost_network.node[6].content_store 	decision_ratio[6] 	0
scalar abilene_cost_network.node[7].core_layer 	interests[7] 	155391
scalar abilene_cost_network.node[7].core_layer 	data[7] 	155391
scalar abilene_cost_network.node[7].content_store 	p_hit[7] 	0
scalar abilene_cost_network.node[7].content_store 	hits[7] 	0
scalar abilene_cost_network.node[7].content_store 	misses[7] 	155391
scalar abilene_cost_network.node[7].content_store 	decision_yes[7] 	0
scalar abilene_cost_network.node[7].content_store 	decision_no[7] 	155391
scalar abilene_cost_network.node[7].content_store 	decision_ratio[7] 	0
scalar abilene_cost_network.node[8].core_layer 	interests[8] 	51877
scalar abilene_cost_network.node[8].core_layer 	data[8] 	51877
scalar abilene_cost_network.node[8].content_store 	p_hit[8] 	0
scalar abilene_cost_network.node[8].content_store 	hits[8] 	0
scalar abilene_cost_network.node[8].content_store 	misses[8] 	51877
scalar abilene_cost_network.node[8].content_store 	decision_yes[8] 	0
scalar abilene_cost_network.node[8].content_store 	decision_no[8] 	51877
scalar abilene_cost_network.node[8].content_store 	decision_ratio[8] 	0
scalar abilene_cost_network.node[9].core_layer 	interests[9] 	179978
scalar abilene_cost_network.node[9].core_layer 	data[9] 	177467
scalar abilene_cost_network.node[9].content_store 	p_hit[9] 	0
scalar abilene_cost_network.node[9].content_store 	hits[9] 	0
scalar abilene_cost_network.node[9].content_store 	misses[9] 	179978
scalar abilene_cost_network.node[9].content_store 	decision_yes[9] 	0
scalar abilene_cost_network.node[9].content_store 	decision_no[9] 	177467
scalar abilene_cost_network.node[9].content_store 	decision_ratio[9] 	0
scalar abilene_cost_network.node[10].core_layer 	interests[10] 	227698
scalar abilene_cost_network.node[10].core_layer 	data[10] 	227700
scalar abilene_cost_network.node[10].content_store 	p_hit[10] 	0
scalar abilene_cost_network.node[10].content_store 	hits[10] 	0
scalar abilene_cost_network.node[10].content_store 	misses[10] 	227698
scalar abilene_cost_network.node[10].content_store 	decision_yes[10] 	0
scalar abilene_cost_network.node[10].content_store 	decision_no[10] 	227700
scalar abilene_cost_network.node[10].content_store 	decision_ratio[10] 	0
scalar abilene_cost_network.node[11].core_layer 	interests[11] 	153602
scalar abilene_cost_network.node[11].core_layer 	repo_load[11] 	153602
scalar abilene_cost_network.node[11].core_layer 	data[11] 	0
scalar abilene_cost_network.node[11].content_store 	p_hit[11] 	0
scalar abilene_cost_network.node[11].content_store 	hits[11] 	0
scalar abilene_cost_network.node[11].content_store 	misses[11] 	153602
scalar abilene_cost_network.node[11].content_store 	decision_yes[11] 	0
scalar abilene_cost_network.node[11].content_store 	decision_no[11] 	153602
scalar abilene_cost_network.node[11].content_store 	decision_ratio[11] 	0
scalar abilene_cost_network.node[12].core_layer 	interests[12] 	155391
scalar abilene_cost_network.node[12].core_layer 	repo_load[12] 	155391
scalar abilene_cost_network.node[12].core_layer 	data[12] 	0
scalar abilene_cost_network.node[12].content_store 	p_hit[12] 	0
scalar abilene_cost_network.node[12].content_store 	hits[12] 	0
scalar abilene_cost_network.node[12].content_store 	misses[12] 	155391
scalar abilene_cost_network.node[12].content_store 	decision_yes[12] 	0
scalar abilene_cost_network.node[12].content_store 	decision_no[12] 	155391
scalar abilene_cost_network.node[12].content_store 	decision_ratio[12] 	0
scalar abilene_cost_network.node[13].core_layer 	interests[13] 	221706
scalar abilene_cost_network.node[13].core_layer 	repo_load[13] 	221706
scalar abilene_cost_network.node[13].core_layer 	data[13] 	0
scalar abilene_cost_network.node[13].content_store 	p_hit[13] 	0
scalar abilene_cost_network.node[13].content_store 	hits[13] 	0
scalar abilene_cost_network.node[13].content_store 	misses[13] 	221706
scalar abilene_cost_network.node[13].content_store 	decision_yes[13] 	0
scalar abilene_cost_network.node[13].content_store 	decision_no[13] 	221706
scalar abilene_cost_network.node[13].content_store 	decision_ratio[13] 	0
scalar abilene_cost_network.client[0] 	hdistance[0] 	3.8714218835487
scalar abilene_cost_network.client[0] 	downloads[0] 	177293
scalar abilene_cost_network.client[0] 	avg_time[0] 	0.014376545307
scalar abilene_cost_network.client[0] 	interests_sent[0] 	179633
scalar abilene_cost_network.client[5] 	hdistance[5] 	5.6978418901791
scalar abilene_cost_network.client[5] 	downloads[5] 	175941
scalar abilene_cost_network.client[5] 	avg_time[5] 	0.019347051903
scalar abilene_cost_network.client[5] 	interests_sent[5] 	179533
scalar abilene_cost_network.client[9] 	hdistance[9] 	3.7098502820243
scalar abilene_cost_network.client[9] 	downloads[9] 	177467
scalar abilene_cost_network.client[9] 	avg_time[9] 	0.012995996234
scalar abilene_cost_network.client[9] 	interests_sent[9] 	179978
