version 2
run General-30-20150316-17:30:32-24551
attr D fix0.01
attr F nrr
attr R lru
attr a 1
attr configname General
attr csize 1e3
attr ctlg 1e5
attr datetime 20150316-17:30:32
attr experiment General
attr inifile omnetpp.ini
attr iterationvars "$rep=24, $net=cost_scenario, $lambda=100, $a=1, $ctlg=1e5, $F=nrr, $ttl=10, $D=fix0.01, $R=lru, $csize=1e3, $window=60, $variance=0.05, $mytime=18000, $kappa=1, $priceratiovalue=1, $splits=0.333_0.333_0.334, $pricebits=0"
attr iterationvars2 "$rep=24, $net=cost_scenario, $lambda=100, $a=1, $ctlg=1e5, $F=nrr, $ttl=10, $D=fix0.01, $R=lru, $csize=1e3, $window=60, $variance=0.05, $mytime=18000, $kappa=1, $priceratiovalue=1, $splits=0.333_0.333_0.334, $pricebits=0, $repetition=0"
attr kappa 1
attr lambda 100
attr measurement "$rep=24, $net=cost_scenario, $lambda=100, $a=1, $ctlg=1e5, $F=nrr, $ttl=10, $D=fix0.01, $R=lru, $csize=1e3, $window=60, $variance=0.05, $mytime=18000, $kappa=1, $priceratiovalue=1, $splits=0.333_0.333_0.334, $pricebits=0"
attr mytime 18000
attr net cost_scenario
attr network networks.${net=cost_scenario}_network
attr pricebits 0
attr priceratiovalue 1
attr processid 24551
attr rep 24
attr repetition 0
attr replication #0
attr resultdir results
attr runnumber 30
attr seedset 24
attr splits 0.333_0.333_0.334
attr ttl 10
attr variance 0.05
attr window 60

scalar . 	a 	1
scalar . 	csize 	1e3
scalar . 	ctlg 	1e5
scalar . 	kappa 	1
scalar . 	lambda 	100
scalar . 	mytime 	18000
scalar . 	pricebits 	0
scalar . 	priceratiovalue 	1
scalar . 	rep 	24
scalar . 	ttl 	10
scalar . 	variance 	0.05
scalar . 	window 	60
scalar cost_scenario_network.content_distribution 	repo-0 	1
scalar cost_scenario_network.content_distribution 	repo-1 	2
scalar cost_scenario_network.content_distribution 	repo-2 	3
scalar cost_scenario_network.content_distribution 	client-0 	0
scalar cost_scenario_network.content_distribution 	repo-0_card 	33316
scalar cost_scenario_network.content_distribution 	repo-0_price 	1
scalar cost_scenario_network.content_distribution 	repo-1_card 	33065
scalar cost_scenario_network.content_distribution 	repo-1_price 	0
scalar cost_scenario_network.content_distribution 	repo-2_card 	33619
scalar cost_scenario_network.content_distribution 	repo-2_price 	1
scalar cost_scenario_network.statistics 	repo_popularity[0] 	0.30696035763734
scalar cost_scenario_network.statistics 	repo_popularity[1] 	0.44440596785581
scalar cost_scenario_network.statistics 	repo_popularity[2] 	0.24863367450686
scalar cost_scenario_network.statistics 	stabilization_time 	1738.7
scalar cost_scenario_network.statistics 	p_hit 	0.4161944213828
scalar cost_scenario_network.statistics 	interests 	636277.75
scalar cost_scenario_network.statistics 	data 	185731.25
scalar cost_scenario_network.statistics 	hdistance 	0.82447094805974
scalar cost_scenario_network.statistics 	avg_time 	0
scalar cost_scenario_network.statistics 	downloads 	1802186
scalar cost_scenario_network.statistics 	total_cost 	494195
scalar cost_scenario_network.statistics 	total_replicas 	100000
scalar cost_scenario_network.statistics 	inner_hit 	0.58776452597013
scalar cost_scenario_network.statistics 	interests_sent 	1802186
scalar cost_scenario_network.node[0].core_layer 	interests[0] 	1802186
scalar cost_scenario_network.node[0].core_layer 	data[0] 	742925
scalar cost_scenario_network.node[0].core_layer 	repo_int[0] 	742925
scalar cost_scenario_network.node[0].content_store 	p_hit[0] 	0.58776452597013
scalar cost_scenario_network.node[0].content_store 	hits[0] 	1059261
scalar cost_scenario_network.node[0].content_store 	misses[0] 	742925
scalar cost_scenario_network.node[0].content_store 	decision_yes[0] 	7422
scalar cost_scenario_network.node[0].content_store 	decision_no[0] 	735503
scalar cost_scenario_network.node[0].content_store 	decision_ratio[0] 	0.0099902412760373
scalar cost_scenario_network.node[0].content_store 	cache_value[0] 	3.4873913696625
scalar cost_scenario_network.node[0].content_store 	average_price_of_cache[0] 	0.653
scalar cost_scenario_network.node[1].core_layer 	interests[1] 	246158
scalar cost_scenario_network.node[1].core_layer 	repo_load[1] 	246158
scalar cost_scenario_network.node[1].core_layer 	data[1] 	0
scalar cost_scenario_network.node[1].content_store 	p_hit[1] 	0
scalar cost_scenario_network.node[1].content_store 	hits[1] 	0
scalar cost_scenario_network.node[1].content_store 	misses[1] 	246158
scalar cost_scenario_network.node[1].content_store 	decision_yes[1] 	0
scalar cost_scenario_network.node[1].content_store 	decision_no[1] 	246158
scalar cost_scenario_network.node[1].content_store 	decision_ratio[1] 	0
scalar cost_scenario_network.node[1].content_store 	cache_value[1] 	1.4331468907097e-316
scalar cost_scenario_network.node[1].content_store 	average_price_of_cache[1] 	-nan
scalar cost_scenario_network.node[2].core_layer 	interests[2] 	248730
scalar cost_scenario_network.node[2].core_layer 	repo_load[2] 	248730
scalar cost_scenario_network.node[2].core_layer 	data[2] 	0
scalar cost_scenario_network.node[2].content_store 	p_hit[2] 	0
scalar cost_scenario_network.node[2].content_store 	hits[2] 	0
scalar cost_scenario_network.node[2].content_store 	misses[2] 	248730
scalar cost_scenario_network.node[2].content_store 	decision_yes[2] 	0
scalar cost_scenario_network.node[2].content_store 	decision_no[2] 	248730
scalar cost_scenario_network.node[2].content_store 	decision_ratio[2] 	0
scalar cost_scenario_network.node[2].content_store 	cache_value[2] 	1.4333057822214e-316
scalar cost_scenario_network.node[2].content_store 	average_price_of_cache[2] 	-nan
scalar cost_scenario_network.node[3].core_layer 	interests[3] 	248037
scalar cost_scenario_network.node[3].core_layer 	repo_load[3] 	248037
scalar cost_scenario_network.node[3].core_layer 	data[3] 	0
scalar cost_scenario_network.node[3].content_store 	p_hit[3] 	0
scalar cost_scenario_network.node[3].content_store 	hits[3] 	0
scalar cost_scenario_network.node[3].content_store 	misses[3] 	248037
scalar cost_scenario_network.node[3].content_store 	decision_yes[3] 	0
scalar cost_scenario_network.node[3].content_store 	decision_no[3] 	248037
scalar cost_scenario_network.node[3].content_store 	decision_ratio[3] 	0
scalar cost_scenario_network.node[3].content_store 	cache_value[3] 	1.4334646737331e-316
scalar cost_scenario_network.node[3].content_store 	average_price_of_cache[3] 	-nan
scalar cost_scenario_network.client[0] 	hdistance[0] 	0.82447094805974
scalar cost_scenario_network.client[0] 	downloads[0] 	1802186
scalar cost_scenario_network.client[0] 	avg_time[0] 	0
scalar cost_scenario_network.client[0] 	interests_sent[0] 	1802186
