version 2
run General-0-20150720-14:16:20-13307
attr C 1e3
attr D lce
attr F spr
attr R lru_repr
attr a 1
attr brates 0.3_0.7_1.5_2.5_3.5
attr configname General
attr ctlg 1e5
attr datetime 20150720-14:16:20
attr experiment General
attr inifile omnetpp.ini
attr iterationvars "$net=abilene_nodelay, $rep=0, $lambda=100, $a=1, $ctlg=1e5, $brates=0.3_0.7_1.5_2.5_3.5, $F=spr, $ttl=1000, $D=lce, $R=lru_repr, $C=1e3, $window=60, $variance=0.05, $mytime=1800"
attr iterationvars2 "$net=abilene_nodelay, $rep=0, $lambda=100, $a=1, $ctlg=1e5, $brates=0.3_0.7_1.5_2.5_3.5, $F=spr, $ttl=1000, $D=lce, $R=lru_repr, $C=1e3, $window=60, $variance=0.05, $mytime=1800, $repetition=0"
attr lambda 100
attr measurement "$net=abilene_nodelay, $rep=0, $lambda=100, $a=1, $ctlg=1e5, $brates=0.3_0.7_1.5_2.5_3.5, $F=spr, $ttl=1000, $D=lce, $R=lru_repr, $C=1e3, $window=60, $variance=0.05, $mytime=1800"
attr mytime 1800
attr net abilene_nodelay
attr network networks.${net=abilene_nodelay}_network
attr processid 13307
attr rep 0
attr repetition 0
attr replication #0
attr resultdir results
attr runnumber 0
attr seedset 0
attr ttl 1000
attr variance 0.05
attr window 60

scalar . 	C 	1e3
scalar . 	a 	1
scalar . 	ctlg 	1e5
scalar . 	lambda 	100
scalar . 	mytime 	1800
scalar . 	rep 	0
scalar . 	ttl 	1000
scalar . 	variance 	0.05
scalar . 	window 	60
scalar abilene_nodelay_network.content_distribution 	repo-0 	5
scalar abilene_nodelay_network.content_distribution 	repo-1 	8
scalar abilene_nodelay_network.content_distribution 	repo-2 	9
scalar abilene_nodelay_network.content_distribution 	repo-3 	0
scalar abilene_nodelay_network.content_distribution 	repo-4 	1
scalar abilene_nodelay_network.content_distribution 	repo-5 	7
scalar abilene_nodelay_network.content_distribution 	repo-6 	6
scalar abilene_nodelay_network.content_distribution 	repo-7 	2
scalar abilene_nodelay_network.content_distribution 	repo-8 	4
scalar abilene_nodelay_network.content_distribution 	repo-9 	10
scalar abilene_nodelay_network.content_distribution 	repo-10 	3
scalar abilene_nodelay_network.content_distribution 	client-0 	10
scalar abilene_nodelay_network.content_distribution 	client-1 	9
scalar abilene_nodelay_network.content_distribution 	client-2 	8
scalar abilene_nodelay_network.content_distribution 	client-3 	7
scalar abilene_nodelay_network.content_distribution 	client-4 	3
scalar abilene_nodelay_network.content_distribution 	client-5 	6
scalar abilene_nodelay_network.content_distribution 	client-6 	5
scalar abilene_nodelay_network.content_distribution 	client-7 	1
scalar abilene_nodelay_network.content_distribution 	client-8 	4
scalar abilene_nodelay_network.content_distribution 	client-9 	0
scalar abilene_nodelay_network.content_distribution 	client-10 	2
scalar abilene_nodelay_network.content_distribution 	repo-0_card 	9071
scalar abilene_nodelay_network.content_distribution 	repo-0_price 	0
scalar abilene_nodelay_network.content_distribution 	repo-1_card 	8986
scalar abilene_nodelay_network.content_distribution 	repo-1_price 	0
scalar abilene_nodelay_network.content_distribution 	repo-2_card 	9050
scalar abilene_nodelay_network.content_distribution 	repo-2_price 	0
scalar abilene_nodelay_network.content_distribution 	repo-3_card 	8986
scalar abilene_nodelay_network.content_distribution 	repo-3_price 	0
scalar abilene_nodelay_network.content_distribution 	repo-4_card 	9064
scalar abilene_nodelay_network.content_distribution 	repo-4_price 	0
scalar abilene_nodelay_network.content_distribution 	repo-5_card 	9170
scalar abilene_nodelay_network.content_distribution 	repo-5_price 	0
scalar abilene_nodelay_network.content_distribution 	repo-6_card 	9151
scalar abilene_nodelay_network.content_distribution 	repo-6_price 	0
scalar abilene_nodelay_network.content_distribution 	repo-7_card 	9112
scalar abilene_nodelay_network.content_distribution 	repo-7_price 	0
scalar abilene_nodelay_network.content_distribution 	repo-8_card 	9132
scalar abilene_nodelay_network.content_distribution 	repo-8_price 	0
scalar abilene_nodelay_network.content_distribution 	repo-9_card 	9101
scalar abilene_nodelay_network.content_distribution 	repo-9_price 	0
scalar abilene_nodelay_network.content_distribution 	repo-10_card 	9177
scalar abilene_nodelay_network.content_distribution 	repo-10_price 	0
scalar abilene_nodelay_network.statistics 	stabilization_time 	36060
scalar abilene_nodelay_network.statistics 	p_hit 	0.31181947467751
scalar abilene_nodelay_network.statistics 	interests 	403807.36363636
scalar abilene_nodelay_network.statistics 	data 	185557.81818182
scalar abilene_nodelay_network.statistics 	hdistance 	1.0958008403372
scalar abilene_nodelay_network.statistics 	avg_time 	0
scalar abilene_nodelay_network.statistics 	downloads 	1980261
scalar abilene_nodelay_network.statistics 	total_cost 	0
scalar abilene_nodelay_network.statistics 	total_replicas 	100000
scalar abilene_nodelay_network.statistics 	"representations_downloaded 0.444519:0.039314:0.0282422:0.023814:0.464111:" 	0
scalar abilene_nodelay_network.statistics 	"slots_per_representation 100:233:500:833:1167:" 	0
scalar abilene_nodelay_network.statistics 	inner_hit 	0.48709791285088
scalar abilene_nodelay_network.statistics 	execution_time 	961
scalar abilene_nodelay_network.node[0].core_layer 	interests[0] 	272021
scalar abilene_nodelay_network.node[0].core_layer 	repo_load[0] 	85209
scalar abilene_nodelay_network.node[0].core_layer 	data[0] 	79103
scalar abilene_nodelay_network.node[0].core_layer 	slots_sent[face$o[1]->client[0]] 	121438319
scalar abilene_nodelay_network.node[0].core_layer 	slots_sent[face$o[2]->node[1]] 	15061870
scalar abilene_nodelay_network.node[0].core_layer 	slots_sent[face$o[3]->node[10]] 	4144865
scalar abilene_nodelay_network.node[0].content_store 	p_hit[0] 	0.39595840027057
scalar abilene_nodelay_network.node[0].content_store 	hits[0] 	107709
scalar abilene_nodelay_network.node[0].content_store 	misses[0] 	164312
scalar abilene_nodelay_network.node[0].content_store 	decision_yes[0] 	79103
scalar abilene_nodelay_network.node[0].content_store 	decision_no[0] 	85209
scalar abilene_nodelay_network.node[0].content_store 	decision_ratio[0] 	0.48141949461999
scalar abilene_nodelay_network.node[0].content_store 	"representation_breakdown[0] 3094:455:187:130:471:" 	0
scalar abilene_nodelay_network.node[0].proactive_component 	hdistance[0].proactive_component 	2.5903249539229
scalar abilene_nodelay_network.node[0].proactive_component 	downloads[0].proactive_component 	395533
scalar abilene_nodelay_network.node[0].proactive_component 	avg_time[0].proactive_component 	0
scalar abilene_nodelay_network.node[1].core_layer 	interests[1] 	470443
scalar abilene_nodelay_network.node[1].core_layer 	repo_load[1] 	95805
scalar abilene_nodelay_network.node[1].core_layer 	data[1] 	243830
scalar abilene_nodelay_network.node[1].core_layer 	slots_sent[face$o[1]->client[1]] 	106517841
scalar abilene_nodelay_network.node[1].core_layer 	slots_sent[face$o[2]->node[0]] 	17458592
scalar abilene_nodelay_network.node[1].core_layer 	slots_sent[face$o[3]->node[10]] 	13631650
scalar abilene_nodelay_network.node[1].core_layer 	slots_sent[face$o[4]->node[2]] 	35251180
scalar abilene_nodelay_network.node[1].content_store 	p_hit[1] 	0.27805281404974
scalar abilene_nodelay_network.node[1].content_store 	hits[1] 	130808
scalar abilene_nodelay_network.node[1].content_store 	misses[1] 	339635
scalar abilene_nodelay_network.node[1].content_store 	decision_yes[1] 	243830
scalar abilene_nodelay_network.node[1].content_store 	decision_no[1] 	95805
scalar abilene_nodelay_network.node[1].content_store 	decision_ratio[1] 	0.71791776465912
scalar abilene_nodelay_network.node[1].content_store 	"representation_breakdown[1] 3172:561:228:162:402:" 	0
scalar abilene_nodelay_network.node[1].proactive_component 	hdistance[1].proactive_component 	2.1315447823097
scalar abilene_nodelay_network.node[1].proactive_component 	downloads[1].proactive_component 	989777
scalar abilene_nodelay_network.node[1].proactive_component 	avg_time[1].proactive_component 	0
scalar abilene_nodelay_network.node[2].core_layer 	interests[2] 	620960
scalar abilene_nodelay_network.node[2].core_layer 	repo_load[2] 	106898
scalar abilene_nodelay_network.node[2].core_layer 	data[2] 	362752
scalar abilene_nodelay_network.node[2].core_layer 	slots_sent[face$o[1]->client[2]] 	104148210
scalar abilene_nodelay_network.node[2].core_layer 	slots_sent[face$o[2]->node[1]] 	38583392
scalar abilene_nodelay_network.node[2].core_layer 	slots_sent[face$o[3]->node[3]] 	46281663
scalar abilene_nodelay_network.node[2].core_layer 	slots_sent[face$o[4]->node[8]] 	18969416
scalar abilene_nodelay_network.node[2].content_store 	p_hit[2] 	0.24367108992528
scalar abilene_nodelay_network.node[2].content_store 	hits[2] 	151310
scalar abilene_nodelay_network.node[2].content_store 	misses[2] 	469650
scalar abilene_nodelay_network.node[2].content_store 	decision_yes[2] 	362752
scalar abilene_nodelay_network.node[2].content_store 	decision_no[2] 	106898
scalar abilene_nodelay_network.node[2].content_store 	decision_ratio[2] 	0.77238794847227
scalar abilene_nodelay_network.node[2].content_store 	"representation_breakdown[2] 3130:551:255:140:412:" 	0
scalar abilene_nodelay_network.node[2].proactive_component 	hdistance[2].proactive_component 	2.0344588602866
scalar abilene_nodelay_network.node[2].proactive_component 	downloads[2].proactive_component 	1331791
scalar abilene_nodelay_network.node[2].proactive_component 	avg_time[2].proactive_component 	0
scalar abilene_nodelay_network.node[3].core_layer 	interests[3] 	585421
scalar abilene_nodelay_network.node[3].core_layer 	repo_load[3] 	94699
scalar abilene_nodelay_network.node[3].core_layer 	data[3] 	335764
scalar abilene_nodelay_network.node[3].core_layer 	slots_sent[face$o[1]->client[3]] 	111536790
scalar abilene_nodelay_network.node[3].core_layer 	slots_sent[face$o[2]->node[2]] 	45518445
scalar abilene_nodelay_network.node[3].core_layer 	slots_sent[face$o[3]->node[4]] 	28300597
scalar abilene_nodelay_network.node[3].core_layer 	slots_sent[face$o[4]->node[7]] 	20361835
scalar abilene_nodelay_network.node[3].content_store 	p_hit[3] 	0.26469498019374
scalar abilene_nodelay_network.node[3].content_store 	hits[3] 	154958
scalar abilene_nodelay_network.node[3].content_store 	misses[3] 	430463
scalar abilene_nodelay_network.node[3].content_store 	decision_yes[3] 	335764
scalar abilene_nodelay_network.node[3].content_store 	decision_no[3] 	94699
scalar abilene_nodelay_network.node[3].content_store 	decision_ratio[3] 	0.78000664400889
scalar abilene_nodelay_network.node[3].content_store 	"representation_breakdown[3] 3050:571:246:160:405:" 	0
scalar abilene_nodelay_network.node[3].proactive_component 	hdistance[3].proactive_component 	2.0356544888911
scalar abilene_nodelay_network.node[3].proactive_component 	downloads[3].proactive_component 	1283513
scalar abilene_nodelay_network.node[3].proactive_component 	avg_time[3].proactive_component 	0
scalar abilene_nodelay_network.node[4].core_layer 	interests[4] 	363226
scalar abilene_nodelay_network.node[4].core_layer 	repo_load[4] 	85946
scalar abilene_nodelay_network.node[4].core_layer 	data[4] 	153405
scalar abilene_nodelay_network.node[4].core_layer 	slots_sent[face$o[1]->client[4]] 	117732661
scalar abilene_nodelay_network.node[4].core_layer 	slots_sent[face$o[2]->node[3]] 	25525569
scalar abilene_nodelay_network.node[4].core_layer 	slots_sent[face$o[3]->node[5]] 	15063963
scalar abilene_nodelay_network.node[4].content_store 	p_hit[4] 	0.34104111489816
scalar abilene_nodelay_network.node[4].content_store 	hits[4] 	123875
scalar abilene_nodelay_network.node[4].content_store 	misses[4] 	239351
scalar abilene_nodelay_network.node[4].content_store 	decision_yes[4] 	153405
scalar abilene_nodelay_network.node[4].content_store 	decision_no[4] 	85946
scalar abilene_nodelay_network.node[4].content_store 	decision_ratio[4] 	0.64092065627468
scalar abilene_nodelay_network.node[4].content_store 	"representation_breakdown[4] 2986:476:212:153:449:" 	0
scalar abilene_nodelay_network.node[4].proactive_component 	hdistance[4].proactive_component 	2.2301536683076
scalar abilene_nodelay_network.node[4].proactive_component 	downloads[4].proactive_component 	702422
scalar abilene_nodelay_network.node[4].proactive_component 	avg_time[4].proactive_component 	0
scalar abilene_nodelay_network.node[5].core_layer 	interests[5] 	290973
scalar abilene_nodelay_network.node[5].core_layer 	repo_load[5] 	99485
scalar abilene_nodelay_network.node[5].core_layer 	data[5] 	94594
scalar abilene_nodelay_network.node[5].core_layer 	slots_sent[face$o[1]->client[5]] 	104292753
scalar abilene_nodelay_network.node[5].core_layer 	slots_sent[face$o[2]->node[4]] 	14446478
scalar abilene_nodelay_network.node[5].core_layer 	slots_sent[face$o[3]->node[6]] 	10237809
scalar abilene_nodelay_network.node[5].content_store 	p_hit[5] 	0.3329999690693
scalar abilene_nodelay_network.node[5].content_store 	hits[5] 	96894
scalar abilene_nodelay_network.node[5].content_store 	misses[5] 	194079
scalar abilene_nodelay_network.node[5].content_store 	decision_yes[5] 	94594
scalar abilene_nodelay_network.node[5].content_store 	decision_no[5] 	99485
scalar abilene_nodelay_network.node[5].content_store 	decision_ratio[5] 	0.48739946104421
scalar abilene_nodelay_network.node[5].content_store 	"representation_breakdown[5] 3151:442:191:114:478:" 	0
scalar abilene_nodelay_network.node[5].proactive_component 	hdistance[5].proactive_component 	2.2941021966524
scalar abilene_nodelay_network.node[5].proactive_component 	downloads[5].proactive_component 	475906
scalar abilene_nodelay_network.node[5].proactive_component 	avg_time[5].proactive_component 	0
scalar abilene_nodelay_network.node[6].core_layer 	interests[6] 	327391
scalar abilene_nodelay_network.node[6].core_layer 	repo_load[6] 	85811
scalar abilene_nodelay_network.node[6].core_layer 	data[6] 	123770
scalar abilene_nodelay_network.node[6].core_layer 	slots_sent[face$o[1]->client[6]] 	118286394
scalar abilene_nodelay_network.node[6].core_layer 	slots_sent[face$o[2]->node[5]] 	10852890
scalar abilene_nodelay_network.node[6].core_layer 	slots_sent[face$o[3]->node[7]] 	22069212
scalar abilene_nodelay_network.node[6].content_store 	p_hit[6] 	0.35984495603117
scalar abilene_nodelay_network.node[6].content_store 	hits[6] 	117810
scalar abilene_nodelay_network.node[6].content_store 	misses[6] 	209581
scalar abilene_nodelay_network.node[6].content_store 	decision_yes[6] 	123770
scalar abilene_nodelay_network.node[6].content_store 	decision_no[6] 	85811
scalar abilene_nodelay_network.node[6].content_store 	decision_ratio[6] 	0.59055925871143
scalar abilene_nodelay_network.node[6].content_store 	"representation_breakdown[6] 3124:491:195:141:450:" 	0
scalar abilene_nodelay_network.node[6].proactive_component 	hdistance[6].proactive_component 	2.1928888755328
scalar abilene_nodelay_network.node[6].proactive_component 	downloads[6].proactive_component 	598977
scalar abilene_nodelay_network.node[6].proactive_component 	avg_time[6].proactive_component 	0
scalar abilene_nodelay_network.node[7].core_layer 	interests[7] 	443673
scalar abilene_nodelay_network.node[7].core_layer 	repo_load[7] 	92739
scalar abilene_nodelay_network.node[7].core_layer 	data[7] 	212590
scalar abilene_nodelay_network.node[7].core_layer 	slots_sent[face$o[1]->client[7]] 	117536895
scalar abilene_nodelay_network.node[7].core_layer 	slots_sent[face$o[2]->node[3]] 	18963109
scalar abilene_nodelay_network.node[7].core_layer 	slots_sent[face$o[3]->node[6]] 	23633331
scalar abilene_nodelay_network.node[7].core_layer 	slots_sent[face$o[4]->node[8]] 	17205962
scalar abilene_nodelay_network.node[7].content_store 	p_hit[7] 	0.31181523329119
scalar abilene_nodelay_network.node[7].content_store 	hits[7] 	138344
scalar abilene_nodelay_network.node[7].content_store 	misses[7] 	305329
scalar abilene_nodelay_network.node[7].content_store 	decision_yes[7] 	212590
scalar abilene_nodelay_network.node[7].content_store 	decision_no[7] 	92739
scalar abilene_nodelay_network.node[7].content_store 	decision_ratio[7] 	0.69626534001028
scalar abilene_nodelay_network.node[7].content_store 	"representation_breakdown[7] 3034:526:223:163:423:" 	0
scalar abilene_nodelay_network.node[7].proactive_component 	hdistance[7].proactive_component 	1.979505921688
scalar abilene_nodelay_network.node[7].proactive_component 	downloads[7].proactive_component 	934953
scalar abilene_nodelay_network.node[7].proactive_component 	avg_time[7].proactive_component 	0
scalar abilene_nodelay_network.node[8].core_layer 	interests[8] 	423491
scalar abilene_nodelay_network.node[8].core_layer 	repo_load[8] 	85562
scalar abilene_nodelay_network.node[8].core_layer 	data[8] 	200916
scalar abilene_nodelay_network.node[8].core_layer 	slots_sent[face$o[1]->client[8]] 	117828934
scalar abilene_nodelay_network.node[8].core_layer 	slots_sent[face$o[2]->node[2]] 	16471239
scalar abilene_nodelay_network.node[8].core_layer 	slots_sent[face$o[3]->node[7]] 	16457197
scalar abilene_nodelay_network.node[8].core_layer 	slots_sent[face$o[4]->node[9]] 	21495199
scalar abilene_nodelay_network.node[8].content_store 	p_hit[8] 	0.32353225924518
scalar abilene_nodelay_network.node[8].content_store 	hits[8] 	137013
scalar abilene_nodelay_network.node[8].content_store 	misses[8] 	286478
scalar abilene_nodelay_network.node[8].content_store 	decision_yes[8] 	200916
scalar abilene_nodelay_network.node[8].content_store 	decision_no[8] 	85562
scalar abilene_nodelay_network.node[8].content_store 	decision_ratio[8] 	0.70133134132464
scalar abilene_nodelay_network.node[8].content_store 	"representation_breakdown[8] 3004:570:214:143:435:" 	0
scalar abilene_nodelay_network.node[8].proactive_component 	hdistance[8].proactive_component 	1.9596366392401
scalar abilene_nodelay_network.node[8].proactive_component 	downloads[8].proactive_component 	916995
scalar abilene_nodelay_network.node[8].proactive_component 	avg_time[8].proactive_component 	0
scalar abilene_nodelay_network.node[9].core_layer 	interests[9] 	327252
scalar abilene_nodelay_network.node[9].core_layer 	repo_load[9] 	88026
scalar abilene_nodelay_network.node[9].core_layer 	data[9] 	123617
scalar abilene_nodelay_network.node[9].core_layer 	slots_sent[face$o[1]->client[9]] 	115194222
scalar abilene_nodelay_network.node[9].core_layer 	slots_sent[face$o[2]->node[10]] 	12926793
scalar abilene_nodelay_network.node[9].core_layer 	slots_sent[face$o[3]->node[8]] 	20036911
scalar abilene_nodelay_network.node[9].content_store 	p_hit[9] 	0.35327209612164
scalar abilene_nodelay_network.node[9].content_store 	hits[9] 	115609
scalar abilene_nodelay_network.node[9].content_store 	misses[9] 	211643
scalar abilene_nodelay_network.node[9].content_store 	decision_yes[9] 	123617
scalar abilene_nodelay_network.node[9].content_store 	decision_no[9] 	88026
scalar abilene_nodelay_network.node[9].content_store 	decision_ratio[9] 	0.58408262971135
scalar abilene_nodelay_network.node[9].content_store 	"representation_breakdown[9] 3201:535:208:119:444:" 	0
scalar abilene_nodelay_network.node[9].proactive_component 	hdistance[9].proactive_component 	2.1013876621071
scalar abilene_nodelay_network.node[9].proactive_component 	downloads[9].proactive_component 	605695
scalar abilene_nodelay_network.node[9].proactive_component 	avg_time[9].proactive_component 	0
scalar abilene_nodelay_network.node[10].core_layer 	interests[10] 	317030
scalar abilene_nodelay_network.node[10].core_layer 	repo_load[10] 	95500
scalar abilene_nodelay_network.node[10].core_layer 	data[10] 	110795
scalar abilene_nodelay_network.node[10].core_layer 	slots_sent[face$o[1]->client[10]] 	111443098
scalar abilene_nodelay_network.node[10].core_layer 	slots_sent[face$o[2]->node[0]] 	4451861
scalar abilene_nodelay_network.node[10].core_layer 	slots_sent[face$o[3]->node[1]] 	12621090
scalar abilene_nodelay_network.node[10].core_layer 	slots_sent[face$o[4]->node[9]] 	12134399
scalar abilene_nodelay_network.node[10].content_store 	p_hit[10] 	0.34928871084755
scalar abilene_nodelay_network.node[10].content_store 	hits[10] 	110735
scalar abilene_nodelay_network.node[10].content_store 	misses[10] 	206295
scalar abilene_nodelay_network.node[10].content_store 	decision_yes[10] 	110795
scalar abilene_nodelay_network.node[10].content_store 	decision_no[10] 	95500
scalar abilene_nodelay_network.node[10].content_store 	decision_ratio[10] 	0.53707069972612
scalar abilene_nodelay_network.node[10].content_store 	"representation_breakdown[10] 3137:483:199:133:454:" 	0
scalar abilene_nodelay_network.node[10].proactive_component 	hdistance[10].proactive_component 	2.1131527593995
scalar abilene_nodelay_network.node[10].proactive_component 	downloads[10].proactive_component 	598536
scalar abilene_nodelay_network.node[10].proactive_component 	avg_time[10].proactive_component 	0
scalar abilene_nodelay_network.client[0] 	hdistance[0].real 	1.1894194932593
scalar abilene_nodelay_network.client[0] 	downloads[0].real 	180842
scalar abilene_nodelay_network.client[0] 	avg_time[0].real 	0
scalar abilene_nodelay_network.client[1] 	hdistance[1].real 	1.1180334793144
scalar abilene_nodelay_network.client[1] 	downloads[1].real 	179932
scalar abilene_nodelay_network.client[1] 	avg_time[1].real 	0
scalar abilene_nodelay_network.client[2] 	hdistance[2].real 	1.0157554268692
scalar abilene_nodelay_network.client[2] 	downloads[2].real 	179938
scalar abilene_nodelay_network.client[2] 	avg_time[2].real 	0
scalar abilene_nodelay_network.client[3] 	hdistance[3].real 	1.0000998225377
scalar abilene_nodelay_network.client[3] 	downloads[3].real 	180320
scalar abilene_nodelay_network.client[3] 	avg_time[3].real 	0
scalar abilene_nodelay_network.client[4] 	hdistance[4].real 	1.1352741242638
scalar abilene_nodelay_network.client[4] 	downloads[4].real 	180648
scalar abilene_nodelay_network.client[4] 	avg_time[4].real 	0
scalar abilene_nodelay_network.client[5] 	hdistance[5].real 	1.2776411135476
scalar abilene_nodelay_network.client[5] 	downloads[5].real 	179678
scalar abilene_nodelay_network.client[5] 	avg_time[5].real 	0
scalar abilene_nodelay_network.client[6] 	hdistance[6].real 	1.1483616353075
scalar abilene_nodelay_network.client[6] 	downloads[6].real 	179905
scalar abilene_nodelay_network.client[6] 	avg_time[6].real 	0
scalar abilene_nodelay_network.client[7] 	hdistance[7].real 	0.98646756882875
scalar abilene_nodelay_network.client[7] 	downloads[7].real 	180012
scalar abilene_nodelay_network.client[7] 	avg_time[7].real 	0
scalar abilene_nodelay_network.client[8] 	hdistance[8].real 	0.95743026317251
scalar abilene_nodelay_network.client[8] 	downloads[8].real 	180034
scalar abilene_nodelay_network.client[8] 	avg_time[8].real 	0
scalar abilene_nodelay_network.client[9] 	hdistance[9].real 	1.0812103242059
scalar abilene_nodelay_network.client[9] 	downloads[9].real 	179423
scalar abilene_nodelay_network.client[9] 	avg_time[9].real 	0
scalar abilene_nodelay_network.client[10] 	hdistance[10].real 	1.1441159924023
scalar abilene_nodelay_network.client[10] 	downloads[10].real 	179529
scalar abilene_nodelay_network.client[10] 	avg_time[10].real 	0
