version 2
run General-4-20140930-18:38:14-28835
attr D never
attr F nrr
attr R lru
attr a 1
attr configname General
attr csize 1e3
attr ctlg 1e5
attr datetime 20140930-18:38:14
attr experiment General
attr inifile omnetpp.ini
attr iterationvars "$net=tiger_cost, $rep=1, $priceratiovalue=10, $weights=0.333_0.333_0.334, $lambda=100, $a=1, $ctlg=1e5, $F=nrr, $ttl=10, $D=never, $xi=1, $R=lru, $csize=1e3, $pricebits=0, $window=60, $variance=0.05, $mytime=1800"
attr iterationvars2 "$net=tiger_cost, $rep=1, $priceratiovalue=10, $weights=0.333_0.333_0.334, $lambda=100, $a=1, $ctlg=1e5, $F=nrr, $ttl=10, $D=never, $xi=1, $R=lru, $csize=1e3, $pricebits=0, $window=60, $variance=0.05, $mytime=1800, $repetition=0"
attr lambda 100
attr measurement "$net=tiger_cost, $rep=1, $priceratiovalue=10, $weights=0.333_0.333_0.334, $lambda=100, $a=1, $ctlg=1e5, $F=nrr, $ttl=10, $D=never, $xi=1, $R=lru, $csize=1e3, $pricebits=0, $window=60, $variance=0.05, $mytime=1800"
attr mytime 1800
attr net tiger_cost
attr network networks.${net=tiger_cost,dtelecom_cost}_network
attr pricebits 0
attr priceratiovalue 10
attr processid 28835
attr rep 1
attr repetition 0
attr replication #0
attr resultdir results
attr runnumber 4
attr seedset 1
attr ttl 10
attr variance 0.05
attr weights 0.333_0.333_0.334
attr window 60
attr xi 1

scalar . 	a 	1
scalar . 	csize 	1e3
scalar . 	ctlg 	1e5
scalar . 	lambda 	100
scalar . 	mytime 	1800
scalar . 	pricebits 	0
scalar . 	priceratiovalue 	10
scalar . 	rep 	1
scalar . 	ttl 	10
scalar . 	variance 	0.05
scalar . 	window 	60
scalar . 	xi 	1
scalar tiger_cost_network.content_distribution 	repo-0 	14
scalar tiger_cost_network.content_distribution 	repo-1 	5
scalar tiger_cost_network.content_distribution 	repo-2 	1
scalar tiger_cost_network.content_distribution 	client-0 	8
scalar tiger_cost_network.content_distribution 	client-1 	18
scalar tiger_cost_network.content_distribution 	client-2 	9
scalar tiger_cost_network.content_distribution 	repo-0_card 	33398
scalar tiger_cost_network.content_distribution 	repo-0_price 	0
scalar tiger_cost_network.content_distribution 	repo-1_card 	33040
scalar tiger_cost_network.content_distribution 	repo-1_price 	1
scalar tiger_cost_network.content_distribution 	repo-2_card 	33562
scalar tiger_cost_network.content_distribution 	repo-2_price 	10
scalar tiger_cost_network.statistics 	repo_popularity[0] 	0.42710281340035
scalar tiger_cost_network.statistics 	repo_popularity[1] 	0.27050451919503
scalar tiger_cost_network.statistics 	repo_popularity[2] 	0.30239266740463
scalar tiger_cost_network.statistics 	stabilization_time 	36060
scalar tiger_cost_network.statistics 	p_hit 	0
scalar tiger_cost_network.statistics 	interests 	106685.77272727
scalar tiger_cost_network.statistics 	data 	82183.318181818
scalar tiger_cost_network.statistics 	hdistance 	4.3663592607953
scalar tiger_cost_network.statistics 	avg_time 	0.00158212991
scalar tiger_cost_network.statistics 	downloads 	537965
scalar tiger_cost_network.statistics 	total_cost 	1772578
scalar tiger_cost_network.statistics 	total_replicas 	100000
scalar tiger_cost_network.statistics 	inner_hit 	0.0017250192856413
scalar tiger_cost_network.node[0].core_layer 	interests[0] 	54199
scalar tiger_cost_network.node[0].core_layer 	data[0] 	54199
scalar tiger_cost_network.node[0].core_layer 	repo_int[0] 	537037
scalar tiger_cost_network.node[0].content_store 	p_hit[0] 	0
scalar tiger_cost_network.node[0].content_store 	hits[0] 	0
scalar tiger_cost_network.node[0].content_store 	misses[0] 	54199
scalar tiger_cost_network.node[0].content_store 	decision_yes[0] 	0
scalar tiger_cost_network.node[0].content_store 	decision_no[0] 	54199
scalar tiger_cost_network.node[0].content_store 	decision_ratio[0] 	0
scalar tiger_cost_network.node[1].core_layer 	interests[1] 	315293
scalar tiger_cost_network.node[1].core_layer 	repo_load[1] 	162687
scalar tiger_cost_network.node[1].core_layer 	data[1] 	152606
scalar tiger_cost_network.node[1].content_store 	p_hit[1] 	0
scalar tiger_cost_network.node[1].content_store 	hits[1] 	0
scalar tiger_cost_network.node[1].content_store 	misses[1] 	315293
scalar tiger_cost_network.node[1].content_store 	decision_yes[1] 	0
scalar tiger_cost_network.node[1].content_store 	decision_no[1] 	315293
scalar tiger_cost_network.node[1].content_store 	decision_ratio[1] 	0
scalar tiger_cost_network.node[2].core_layer 	interests[2] 	206805
scalar tiger_cost_network.node[2].core_layer 	data[2] 	206805
scalar tiger_cost_network.node[2].content_store 	p_hit[2] 	0
scalar tiger_cost_network.node[2].content_store 	hits[2] 	0
scalar tiger_cost_network.node[2].content_store 	misses[2] 	206805
scalar tiger_cost_network.node[2].content_store 	decision_yes[2] 	0
scalar tiger_cost_network.node[2].content_store 	decision_no[2] 	206805
scalar tiger_cost_network.node[2].content_store 	decision_ratio[2] 	0
scalar tiger_cost_network.node[3].core_layer 	interests[3] 	228943
scalar tiger_cost_network.node[3].core_layer 	data[3] 	228642
scalar tiger_cost_network.node[3].content_store 	p_hit[3] 	0
scalar tiger_cost_network.node[3].content_store 	hits[3] 	0
scalar tiger_cost_network.node[3].content_store 	misses[3] 	228943
scalar tiger_cost_network.node[3].content_store 	decision_yes[3] 	0
scalar tiger_cost_network.node[3].content_store 	decision_no[3] 	228642
scalar tiger_cost_network.node[3].content_store 	decision_ratio[3] 	0
scalar tiger_cost_network.node[4].core_layer 	interests[4] 	76338
scalar tiger_cost_network.node[4].core_layer 	data[4] 	76337
scalar tiger_cost_network.node[4].content_store 	p_hit[4] 	0
scalar tiger_cost_network.node[4].content_store 	hits[4] 	0
scalar tiger_cost_network.node[4].content_store 	misses[4] 	76338
scalar tiger_cost_network.node[4].content_store 	decision_yes[4] 	0
scalar tiger_cost_network.node[4].content_store 	decision_no[4] 	76337
scalar tiger_cost_network.node[4].content_store 	decision_ratio[4] 	0
scalar tiger_cost_network.node[5].core_layer 	interests[5] 	145708
scalar tiger_cost_network.node[5].core_layer 	repo_load[5] 	145708
scalar tiger_cost_network.node[5].core_layer 	data[5] 	0
scalar tiger_cost_network.node[5].content_store 	p_hit[5] 	0
scalar tiger_cost_network.node[5].content_store 	hits[5] 	0
scalar tiger_cost_network.node[5].content_store 	misses[5] 	145708
scalar tiger_cost_network.node[5].content_store 	decision_yes[5] 	0
scalar tiger_cost_network.node[5].content_store 	decision_no[5] 	145708
scalar tiger_cost_network.node[5].content_store 	decision_ratio[5] 	0
scalar tiger_cost_network.node[6].core_layer 	interests[6] 	96810
scalar tiger_cost_network.node[6].core_layer 	data[6] 	96810
scalar tiger_cost_network.node[6].content_store 	p_hit[6] 	0
scalar tiger_cost_network.node[6].content_store 	hits[6] 	0
scalar tiger_cost_network.node[6].content_store 	misses[6] 	96810
scalar tiger_cost_network.node[6].content_store 	decision_yes[6] 	0
scalar tiger_cost_network.node[6].content_store 	decision_no[6] 	96810
scalar tiger_cost_network.node[6].content_store 	decision_ratio[6] 	0
scalar tiger_cost_network.node[7].core_layer 	interests[7] 	96810
scalar tiger_cost_network.node[7].core_layer 	data[7] 	96810
scalar tiger_cost_network.node[7].content_store 	p_hit[7] 	0
scalar tiger_cost_network.node[7].content_store 	hits[7] 	0
scalar tiger_cost_network.node[7].content_store 	misses[7] 	96810
scalar tiger_cost_network.node[7].content_store 	decision_yes[7] 	0
scalar tiger_cost_network.node[7].content_store 	decision_no[7] 	96810
scalar tiger_cost_network.node[7].content_store 	decision_ratio[7] 	0
scalar tiger_cost_network.node[8].core_layer 	interests[8] 	358867
scalar tiger_cost_network.node[8].core_layer 	data[8] 	357904
scalar tiger_cost_network.node[8].content_store 	p_hit[8] 	0
scalar tiger_cost_network.node[8].content_store 	hits[8] 	0
scalar tiger_cost_network.node[8].content_store 	misses[8] 	358867
scalar tiger_cost_network.node[8].content_store 	decision_yes[8] 	0
scalar tiger_cost_network.node[8].content_store 	decision_no[8] 	357904
scalar tiger_cost_network.node[8].content_store 	decision_ratio[8] 	0
scalar tiger_cost_network.node[9].core_layer 	interests[9] 	179451
scalar tiger_cost_network.node[9].core_layer 	data[9] 	179050
scalar tiger_cost_network.node[9].content_store 	p_hit[9] 	0
scalar tiger_cost_network.node[9].content_store 	hits[9] 	0
scalar tiger_cost_network.node[9].content_store 	misses[9] 	179451
scalar tiger_cost_network.node[9].content_store 	decision_yes[9] 	0
scalar tiger_cost_network.node[9].content_store 	decision_no[9] 	179050
scalar tiger_cost_network.node[9].content_store 	decision_ratio[9] 	0
scalar tiger_cost_network.node[10].core_layer 	interests[10] 	0
scalar tiger_cost_network.node[10].core_layer 	data[10] 	0
scalar tiger_cost_network.node[10].content_store 	p_hit[10] 	-nan
scalar tiger_cost_network.node[10].content_store 	hits[10] 	0
scalar tiger_cost_network.node[10].content_store 	misses[10] 	0
scalar tiger_cost_network.node[10].content_store 	decision_yes[10] 	0
scalar tiger_cost_network.node[10].content_store 	decision_no[10] 	0
scalar tiger_cost_network.node[10].content_store 	decision_ratio[10] 	0
scalar tiger_cost_network.node[11].core_layer 	interests[11] 	0
scalar tiger_cost_network.node[11].core_layer 	data[11] 	0
scalar tiger_cost_network.node[11].content_store 	p_hit[11] 	-nan
scalar tiger_cost_network.node[11].content_store 	hits[11] 	0
scalar tiger_cost_network.node[11].content_store 	misses[11] 	0
scalar tiger_cost_network.node[11].content_store 	decision_yes[11] 	0
scalar tiger_cost_network.node[11].content_store 	decision_no[11] 	0
scalar tiger_cost_network.node[11].content_store 	decision_ratio[11] 	0
scalar tiger_cost_network.node[12].core_layer 	interests[12] 	54199
scalar tiger_cost_network.node[12].core_layer 	data[12] 	54199
scalar tiger_cost_network.node[12].content_store 	p_hit[12] 	0
scalar tiger_cost_network.node[12].content_store 	hits[12] 	0
scalar tiger_cost_network.node[12].content_store 	misses[12] 	54199
scalar tiger_cost_network.node[12].content_store 	decision_yes[12] 	0
scalar tiger_cost_network.node[12].content_store 	decision_no[12] 	54199
scalar tiger_cost_network.node[12].content_store 	decision_ratio[12] 	0
scalar tiger_cost_network.node[13].core_layer 	interests[13] 	0
scalar tiger_cost_network.node[13].core_layer 	data[13] 	0
scalar tiger_cost_network.node[13].content_store 	p_hit[13] 	-nan
scalar tiger_cost_network.node[13].content_store 	hits[13] 	0
scalar tiger_cost_network.node[13].content_store 	misses[13] 	0
scalar tiger_cost_network.node[13].content_store 	decision_yes[13] 	0
scalar tiger_cost_network.node[13].content_store 	decision_no[13] 	0
scalar tiger_cost_network.node[13].content_store 	decision_ratio[13] 	0
scalar tiger_cost_network.node[14].core_layer 	interests[14] 	228642
scalar tiger_cost_network.node[14].core_layer 	repo_load[14] 	228642
scalar tiger_cost_network.node[14].core_layer 	data[14] 	0
scalar tiger_cost_network.node[14].content_store 	p_hit[14] 	0
scalar tiger_cost_network.node[14].content_store 	hits[14] 	0
scalar tiger_cost_network.node[14].content_store 	misses[14] 	228642
scalar tiger_cost_network.node[14].content_store 	decision_yes[14] 	0
scalar tiger_cost_network.node[14].content_store 	decision_no[14] 	228642
scalar tiger_cost_network.node[14].content_store 	decision_ratio[14] 	0
scalar tiger_cost_network.node[15].core_layer 	interests[15] 	0
scalar tiger_cost_network.node[15].core_layer 	data[15] 	0
scalar tiger_cost_network.node[15].content_store 	p_hit[15] 	-nan
scalar tiger_cost_network.node[15].content_store 	hits[15] 	0
scalar tiger_cost_network.node[15].content_store 	misses[15] 	0
scalar tiger_cost_network.node[15].content_store 	decision_yes[15] 	0
scalar tiger_cost_network.node[15].content_store 	decision_no[15] 	0
scalar tiger_cost_network.node[15].content_store 	decision_ratio[15] 	0
scalar tiger_cost_network.node[16].core_layer 	interests[16] 	0
scalar tiger_cost_network.node[16].core_layer 	data[16] 	0
scalar tiger_cost_network.node[16].content_store 	p_hit[16] 	-nan
scalar tiger_cost_network.node[16].content_store 	hits[16] 	0
scalar tiger_cost_network.node[16].content_store 	misses[16] 	0
scalar tiger_cost_network.node[16].content_store 	decision_yes[16] 	0
scalar tiger_cost_network.node[16].content_store 	decision_no[16] 	0
scalar tiger_cost_network.node[16].content_store 	decision_ratio[16] 	0
scalar tiger_cost_network.node[17].core_layer 	interests[17] 	125236
scalar tiger_cost_network.node[17].core_layer 	data[17] 	125236
scalar tiger_cost_network.node[17].content_store 	p_hit[17] 	0
scalar tiger_cost_network.node[17].content_store 	hits[17] 	0
scalar tiger_cost_network.node[17].content_store 	misses[17] 	125236
scalar tiger_cost_network.node[17].content_store 	decision_yes[17] 	0
scalar tiger_cost_network.node[17].content_store 	decision_no[17] 	125236
scalar tiger_cost_network.node[17].content_store 	decision_ratio[17] 	0
scalar tiger_cost_network.node[18].core_layer 	interests[18] 	179786
scalar tiger_cost_network.node[18].core_layer 	data[18] 	179435
scalar tiger_cost_network.node[18].content_store 	p_hit[18] 	0
scalar tiger_cost_network.node[18].content_store 	hits[18] 	0
scalar tiger_cost_network.node[18].content_store 	misses[18] 	179786
scalar tiger_cost_network.node[18].content_store 	decision_yes[18] 	0
scalar tiger_cost_network.node[18].content_store 	decision_no[18] 	179435
scalar tiger_cost_network.node[18].content_store 	decision_ratio[18] 	0
scalar tiger_cost_network.node[19].core_layer 	interests[19] 	0
scalar tiger_cost_network.node[19].core_layer 	data[19] 	0
scalar tiger_cost_network.node[19].content_store 	p_hit[19] 	-nan
scalar tiger_cost_network.node[19].content_store 	hits[19] 	0
scalar tiger_cost_network.node[19].content_store 	misses[19] 	0
scalar tiger_cost_network.node[19].content_store 	decision_yes[19] 	0
scalar tiger_cost_network.node[19].content_store 	decision_no[19] 	0
scalar tiger_cost_network.node[19].content_store 	decision_ratio[19] 	0
scalar tiger_cost_network.node[20].core_layer 	interests[20] 	0
scalar tiger_cost_network.node[20].core_layer 	data[20] 	0
scalar tiger_cost_network.node[20].content_store 	p_hit[20] 	-nan
scalar tiger_cost_network.node[20].content_store 	hits[20] 	0
scalar tiger_cost_network.node[20].content_store 	misses[20] 	0
scalar tiger_cost_network.node[20].content_store 	decision_yes[20] 	0
scalar tiger_cost_network.node[20].content_store 	decision_no[20] 	0
scalar tiger_cost_network.node[20].content_store 	decision_ratio[20] 	0
scalar tiger_cost_network.node[21].core_layer 	interests[21] 	0
scalar tiger_cost_network.node[21].core_layer 	data[21] 	0
scalar tiger_cost_network.node[21].content_store 	p_hit[21] 	-nan
scalar tiger_cost_network.node[21].content_store 	hits[21] 	0
scalar tiger_cost_network.node[21].content_store 	misses[21] 	0
scalar tiger_cost_network.node[21].content_store 	decision_yes[21] 	0
scalar tiger_cost_network.node[21].content_store 	decision_no[21] 	0
scalar tiger_cost_network.node[21].content_store 	decision_ratio[21] 	0
scalar tiger_cost_network.client[8] 	hdistance[8] 	3.8185034544239
scalar tiger_cost_network.client[8] 	downloads[8] 	179480
scalar tiger_cost_network.client[8] 	avg_time[8] 	0.001384647024
scalar tiger_cost_network.client[9] 	hdistance[9] 	4.8255962021782
scalar tiger_cost_network.client[9] 	downloads[9] 	179050
scalar tiger_cost_network.client[9] 	avg_time[9] 	0.00168739865
scalar tiger_cost_network.client[18] 	hdistance[18] 	4.4549781257837
scalar tiger_cost_network.client[18] 	downloads[18] 	179435
scalar tiger_cost_network.client[18] 	avg_time[18] 	0.001674344056
