version 2
run General-96-20150317-19:46:16-14398
attr D costaware0.01
attr F nrr
attr R lru
attr a 1
attr configname General
attr csize 1e3
attr ctlg 1e5
attr datetime 20150317-19:46:16
attr experiment General
attr inifile omnetpp.ini
attr iterationvars "$rep=5, $net=cost_scenario, $lambda=100, $a=1, $ctlg=1e5, $F=nrr, $ttl=10, $D=costaware0.01, $R=lru, $csize=1e3, $window=60, $variance=0.05, $mytime=1800000, $kappa=1, $priceratiovalue=2, $splits=0.333_0.333_0.334, $pricebits=0"
attr iterationvars2 "$rep=5, $net=cost_scenario, $lambda=100, $a=1, $ctlg=1e5, $F=nrr, $ttl=10, $D=costaware0.01, $R=lru, $csize=1e3, $window=60, $variance=0.05, $mytime=1800000, $kappa=1, $priceratiovalue=2, $splits=0.333_0.333_0.334, $pricebits=0, $repetition=0"
attr kappa 1
attr lambda 100
attr measurement "$rep=5, $net=cost_scenario, $lambda=100, $a=1, $ctlg=1e5, $F=nrr, $ttl=10, $D=costaware0.01, $R=lru, $csize=1e3, $window=60, $variance=0.05, $mytime=1800000, $kappa=1, $priceratiovalue=2, $splits=0.333_0.333_0.334, $pricebits=0"
attr mytime 1800000
attr net cost_scenario
attr network networks.${net=cost_scenario}_network
attr pricebits 0
attr priceratiovalue 2
attr processid 14398
attr rep 5
attr repetition 0
attr replication #0
attr resultdir results
attr runnumber 96
attr seedset 5
attr splits 0.333_0.333_0.334
attr ttl 10
attr variance 0.05
attr window 60

scalar . 	a 	1
scalar . 	csize 	1e3
scalar . 	ctlg 	1e5
scalar . 	kappa 	1
scalar . 	lambda 	100
scalar . 	mytime 	1800000
scalar . 	pricebits 	0
scalar . 	priceratiovalue 	2
scalar . 	rep 	5
scalar . 	ttl 	10
scalar . 	variance 	0.05
scalar . 	window 	60
scalar cost_scenario_network.content_distribution 	repo-0 	1
scalar cost_scenario_network.content_distribution 	repo-1 	2
scalar cost_scenario_network.content_distribution 	repo-2 	3
scalar cost_scenario_network.content_distribution 	client-0 	0
scalar cost_scenario_network.content_distribution 	repo-0_card 	33101
scalar cost_scenario_network.content_distribution 	repo-0_price 	0
scalar cost_scenario_network.content_distribution 	repo-1_card 	33496
scalar cost_scenario_network.content_distribution 	repo-1_price 	2
scalar cost_scenario_network.content_distribution 	repo-2_card 	33403
scalar cost_scenario_network.content_distribution 	repo-2_price 	1
scalar cost_scenario_network.statistics 	repo_popularity[0] 	0.41885398509097
scalar cost_scenario_network.statistics 	repo_popularity[1] 	0.31227352275126
scalar cost_scenario_network.statistics 	repo_popularity[2] 	0.26887249215779
scalar cost_scenario_network.statistics 	stabilization_time 	1973.5
scalar cost_scenario_network.statistics 	p_hit 	0.20053914479652
scalar cost_scenario_network.statistics 	interests 	74957600
scalar cost_scenario_network.statistics 	data 	29962833.5
scalar cost_scenario_network.statistics 	hdistance 	1.3318363814604
scalar cost_scenario_network.statistics 	avg_time 	0
scalar cost_scenario_network.statistics 	downloads 	179979066
scalar cost_scenario_network.statistics 	total_cost 	66289117
scalar cost_scenario_network.statistics 	total_replicas 	100000
scalar cost_scenario_network.statistics 	inner_hit 	0.33408180926997
scalar cost_scenario_network.statistics 	interests_sent 	179979066
scalar cost_scenario_network.node[0].core_layer 	interests[0] 	179979066
scalar cost_scenario_network.node[0].core_layer 	data[0] 	119851334
scalar cost_scenario_network.node[0].core_layer 	repo_int[0] 	119851334
scalar cost_scenario_network.node[0].content_store 	p_hit[0] 	0.33408180926997
scalar cost_scenario_network.node[0].content_store 	hits[0] 	60127732
scalar cost_scenario_network.node[0].content_store 	misses[0] 	119851334
scalar cost_scenario_network.node[0].content_store 	decision_yes[0] 	662955
scalar cost_scenario_network.node[0].content_store 	decision_no[0] 	119188379
scalar cost_scenario_network.node[0].content_store 	decision_ratio[0] 	0.0055314778557242
scalar cost_scenario_network.node[0].content_store 	cache_value[0] 	6.3721101632053
scalar cost_scenario_network.node[0].content_store 	average_price_of_cache[0] 	1.586
scalar cost_scenario_network.node[0].content_store 	correction_factor[0] 	0.00999000999001
scalar cost_scenario_network.node[0].content_store 	kappa[0] 	1
scalar cost_scenario_network.node[1].core_layer 	interests[1] 	75396340
scalar cost_scenario_network.node[1].core_layer 	repo_load[1] 	75396340
scalar cost_scenario_network.node[1].core_layer 	data[1] 	0
scalar cost_scenario_network.node[1].content_store 	p_hit[1] 	0
scalar cost_scenario_network.node[1].content_store 	hits[1] 	0
scalar cost_scenario_network.node[1].content_store 	misses[1] 	75396340
scalar cost_scenario_network.node[1].content_store 	decision_yes[1] 	0
scalar cost_scenario_network.node[1].content_store 	decision_no[1] 	75396340
scalar cost_scenario_network.node[1].content_store 	decision_ratio[1] 	0
scalar cost_scenario_network.node[1].content_store 	cache_value[1] 	2.0649366949755e-316
scalar cost_scenario_network.node[1].content_store 	average_price_of_cache[1] 	-nan
scalar cost_scenario_network.node[1].content_store 	correction_factor[1] 	0.00999000999001
scalar cost_scenario_network.node[1].content_store 	kappa[1] 	1
scalar cost_scenario_network.node[2].core_layer 	interests[2] 	21834123
scalar cost_scenario_network.node[2].core_layer 	repo_load[2] 	21834123
scalar cost_scenario_network.node[2].core_layer 	data[2] 	0
scalar cost_scenario_network.node[2].content_store 	p_hit[2] 	0
scalar cost_scenario_network.node[2].content_store 	hits[2] 	0
scalar cost_scenario_network.node[2].content_store 	misses[2] 	21834123
scalar cost_scenario_network.node[2].content_store 	decision_yes[2] 	0
scalar cost_scenario_network.node[2].content_store 	decision_no[2] 	21834123
scalar cost_scenario_network.node[2].content_store 	decision_ratio[2] 	0
scalar cost_scenario_network.node[2].content_store 	cache_value[2] 	2.0650955864872e-316
scalar cost_scenario_network.node[2].content_store 	average_price_of_cache[2] 	-nan
scalar cost_scenario_network.node[2].content_store 	correction_factor[2] 	0.00999000999001
scalar cost_scenario_network.node[2].content_store 	kappa[2] 	1
scalar cost_scenario_network.node[3].core_layer 	interests[3] 	22620871
scalar cost_scenario_network.node[3].core_layer 	repo_load[3] 	22620871
scalar cost_scenario_network.node[3].core_layer 	data[3] 	0
scalar cost_scenario_network.node[3].content_store 	p_hit[3] 	0
scalar cost_scenario_network.node[3].content_store 	hits[3] 	0
scalar cost_scenario_network.node[3].content_store 	misses[3] 	22620871
scalar cost_scenario_network.node[3].content_store 	decision_yes[3] 	0
scalar cost_scenario_network.node[3].content_store 	decision_no[3] 	22620871
scalar cost_scenario_network.node[3].content_store 	decision_ratio[3] 	0
scalar cost_scenario_network.node[3].content_store 	cache_value[3] 	2.0652544779989e-316
scalar cost_scenario_network.node[3].content_store 	average_price_of_cache[3] 	-nan
scalar cost_scenario_network.node[3].content_store 	correction_factor[3] 	0.00999000999001
scalar cost_scenario_network.node[3].content_store 	kappa[3] 	1
scalar cost_scenario_network.client[0] 	hdistance[0] 	1.3318363814604
scalar cost_scenario_network.client[0] 	downloads[0] 	179979066
scalar cost_scenario_network.client[0] 	avg_time[0] 	0
scalar cost_scenario_network.client[0] 	interests_sent[0] 	179979066
