version 2
run General-18-20150720-19:28:11-15232
attr C 1e4
attr D lce
attr F spr
attr R lru_repr
attr a 1
attr brates 0.3_0.7_1.5_2.5_3.5
attr configname General
attr ctlg 1e6
attr datetime 20150720-19:28:11
attr experiment General
attr inifile omnetpp.ini
attr iterationvars "$net=abilene_nodelay, $rep=9, $lambda=100, $a=1, $ctlg=1e6, $brates=0.3_0.7_1.5_2.5_3.5, $F=spr, $ttl=1000, $D=lce, $R=lru_repr, $C=1e4, $window=60, $variance=0.05, $mytime=1800"
attr iterationvars2 "$net=abilene_nodelay, $rep=9, $lambda=100, $a=1, $ctlg=1e6, $brates=0.3_0.7_1.5_2.5_3.5, $F=spr, $ttl=1000, $D=lce, $R=lru_repr, $C=1e4, $window=60, $variance=0.05, $mytime=1800, $repetition=0"
attr lambda 100
attr measurement "$net=abilene_nodelay, $rep=9, $lambda=100, $a=1, $ctlg=1e6, $brates=0.3_0.7_1.5_2.5_3.5, $F=spr, $ttl=1000, $D=lce, $R=lru_repr, $C=1e4, $window=60, $variance=0.05, $mytime=1800"
attr mytime 1800
attr net abilene_nodelay
attr network networks.${net=abilene_nodelay}_network
attr processid 15232
attr rep 9
attr repetition 0
attr replication #0
attr resultdir results
attr runnumber 18
attr seedset 9
attr ttl 1000
attr variance 0.05
attr window 60

scalar . 	C 	1e4
scalar . 	a 	1
scalar . 	ctlg 	1e6
scalar . 	lambda 	100
scalar . 	mytime 	1800
scalar . 	rep 	9
scalar . 	ttl 	1000
scalar . 	variance 	0.05
scalar . 	window 	60
scalar abilene_nodelay_network.content_distribution 	repo-0 	1
scalar abilene_nodelay_network.content_distribution 	repo-1 	9
scalar abilene_nodelay_network.content_distribution 	repo-2 	5
scalar abilene_nodelay_network.content_distribution 	repo-3 	6
scalar abilene_nodelay_network.content_distribution 	repo-4 	4
scalar abilene_nodelay_network.content_distribution 	repo-5 	0
scalar abilene_nodelay_network.content_distribution 	repo-6 	3
scalar abilene_nodelay_network.content_distribution 	repo-7 	7
scalar abilene_nodelay_network.content_distribution 	repo-8 	8
scalar abilene_nodelay_network.content_distribution 	repo-9 	2
scalar abilene_nodelay_network.content_distribution 	repo-10 	10
scalar abilene_nodelay_network.content_distribution 	client-0 	4
scalar abilene_nodelay_network.content_distribution 	client-1 	7
scalar abilene_nodelay_network.content_distribution 	client-2 	1
scalar abilene_nodelay_network.content_distribution 	client-3 	5
scalar abilene_nodelay_network.content_distribution 	client-4 	0
scalar abilene_nodelay_network.content_distribution 	client-5 	3
scalar abilene_nodelay_network.content_distribution 	client-6 	9
scalar abilene_nodelay_network.content_distribution 	client-7 	10
scalar abilene_nodelay_network.content_distribution 	client-8 	2
scalar abilene_nodelay_network.content_distribution 	client-9 	6
scalar abilene_nodelay_network.content_distribution 	client-10 	8
scalar abilene_nodelay_network.content_distribution 	repo-0_card 	90972
scalar abilene_nodelay_network.content_distribution 	repo-0_price 	0
scalar abilene_nodelay_network.content_distribution 	repo-1_card 	91139
scalar abilene_nodelay_network.content_distribution 	repo-1_price 	0
scalar abilene_nodelay_network.content_distribution 	repo-2_card 	91359
scalar abilene_nodelay_network.content_distribution 	repo-2_price 	0
scalar abilene_nodelay_network.content_distribution 	repo-3_card 	90815
scalar abilene_nodelay_network.content_distribution 	repo-3_price 	0
scalar abilene_nodelay_network.content_distribution 	repo-4_card 	90931
scalar abilene_nodelay_network.content_distribution 	repo-4_price 	0
scalar abilene_nodelay_network.content_distribution 	repo-5_card 	90733
scalar abilene_nodelay_network.content_distribution 	repo-5_price 	0
scalar abilene_nodelay_network.content_distribution 	repo-6_card 	90960
scalar abilene_nodelay_network.content_distribution 	repo-6_price 	0
scalar abilene_nodelay_network.content_distribution 	repo-7_card 	90328
scalar abilene_nodelay_network.content_distribution 	repo-7_price 	0
scalar abilene_nodelay_network.content_distribution 	repo-8_card 	90956
scalar abilene_nodelay_network.content_distribution 	repo-8_price 	0
scalar abilene_nodelay_network.content_distribution 	repo-9_card 	91062
scalar abilene_nodelay_network.content_distribution 	repo-9_price 	0
scalar abilene_nodelay_network.content_distribution 	repo-10_card 	90745
scalar abilene_nodelay_network.content_distribution 	repo-10_price 	0
scalar abilene_nodelay_network.statistics 	stabilization_time 	36060
scalar abilene_nodelay_network.statistics 	p_hit 	0.35850920922717
scalar abilene_nodelay_network.statistics 	interests 	367743.81818182
scalar abilene_nodelay_network.statistics 	data 	155724.45454545
scalar abilene_nodelay_network.statistics 	hdistance 	0.93538644450133
scalar abilene_nodelay_network.statistics 	avg_time 	0
scalar abilene_nodelay_network.statistics 	downloads 	1980195
scalar abilene_nodelay_network.statistics 	total_cost 	0
scalar abilene_nodelay_network.statistics 	total_replicas 	1000000
scalar abilene_nodelay_network.statistics 	"representations_downloaded 0.38842:0.0327281:0.0234568:0.0199268:0.535468:" 	0
scalar abilene_nodelay_network.statistics 	"slots_per_representation 100:233:500:833:1167:" 	0
scalar abilene_nodelay_network.statistics 	inner_hit 	0.55460043076566
scalar abilene_nodelay_network.statistics 	execution_time 	1109
scalar abilene_nodelay_network.node[0].core_layer 	interests[0] 	257334
scalar abilene_nodelay_network.node[0].core_layer 	repo_load[0] 	76546
scalar abilene_nodelay_network.node[0].core_layer 	data[0] 	66157
scalar abilene_nodelay_network.node[0].core_layer 	slots_sent[face$o[1]->client[0]] 	130571798
scalar abilene_nodelay_network.node[0].core_layer 	slots_sent[face$o[2]->node[1]] 	12798243
scalar abilene_nodelay_network.node[0].core_layer 	slots_sent[face$o[3]->node[10]] 	3621087
scalar abilene_nodelay_network.node[0].content_store 	p_hit[0] 	0.44545609985466
scalar abilene_nodelay_network.node[0].content_store 	hits[0] 	114631
scalar abilene_nodelay_network.node[0].content_store 	misses[0] 	142703
scalar abilene_nodelay_network.node[0].content_store 	decision_yes[0] 	66157
scalar abilene_nodelay_network.node[0].content_store 	decision_no[0] 	76546
scalar abilene_nodelay_network.node[0].content_store 	decision_ratio[0] 	0.46359922356222
scalar abilene_nodelay_network.node[0].content_store 	"representation_breakdown[0] 30643:4491:1955:1185:4794:" 	0
scalar abilene_nodelay_network.node[0].proactive_component 	hdistance[0].proactive_component 	2.5798093935385
scalar abilene_nodelay_network.node[0].proactive_component 	downloads[0].proactive_component 	336295
scalar abilene_nodelay_network.node[0].proactive_component 	avg_time[0].proactive_component 	0
scalar abilene_nodelay_network.node[1].core_layer 	interests[1] 	426484
scalar abilene_nodelay_network.node[1].core_layer 	repo_load[1] 	80051
scalar abilene_nodelay_network.node[1].core_layer 	data[1] 	203935
scalar abilene_nodelay_network.node[1].core_layer 	slots_sent[face$o[1]->client[1]] 	127557100
scalar abilene_nodelay_network.node[1].core_layer 	slots_sent[face$o[2]->node[0]] 	14764467
scalar abilene_nodelay_network.node[1].core_layer 	slots_sent[face$o[3]->node[10]] 	11553757
scalar abilene_nodelay_network.node[1].core_layer 	slots_sent[face$o[4]->node[2]] 	30414782
scalar abilene_nodelay_network.node[1].content_store 	p_hit[1] 	0.33412273379541
scalar abilene_nodelay_network.node[1].content_store 	hits[1] 	142498
scalar abilene_nodelay_network.node[1].content_store 	misses[1] 	283986
scalar abilene_nodelay_network.node[1].content_store 	decision_yes[1] 	203935
scalar abilene_nodelay_network.node[1].content_store 	decision_no[1] 	80051
scalar abilene_nodelay_network.node[1].content_store 	decision_ratio[1] 	0.71811638601903
scalar abilene_nodelay_network.node[1].content_store 	"representation_breakdown[1] 31403:5434:2340:1560:4108:" 	0
scalar abilene_nodelay_network.node[1].proactive_component 	hdistance[1].proactive_component 	2.1359881291261
scalar abilene_nodelay_network.node[1].proactive_component 	downloads[1].proactive_component 	825550
scalar abilene_nodelay_network.node[1].proactive_component 	avg_time[1].proactive_component 	0
scalar abilene_nodelay_network.node[2].core_layer 	interests[2] 	548758
scalar abilene_nodelay_network.node[2].core_layer 	repo_load[2] 	85344
scalar abilene_nodelay_network.node[2].core_layer 	data[2] 	307791
scalar abilene_nodelay_network.node[2].core_layer 	slots_sent[face$o[1]->client[2]] 	119666580
scalar abilene_nodelay_network.node[2].core_layer 	slots_sent[face$o[2]->node[1]] 	32024822
scalar abilene_nodelay_network.node[2].core_layer 	slots_sent[face$o[3]->node[3]] 	38262549
scalar abilene_nodelay_network.node[2].core_layer 	slots_sent[face$o[4]->node[8]] 	15582541
scalar abilene_nodelay_network.node[2].content_store 	p_hit[2] 	0.28359130983056
scalar abilene_nodelay_network.node[2].content_store 	hits[2] 	155623
scalar abilene_nodelay_network.node[2].content_store 	misses[2] 	393135
scalar abilene_nodelay_network.node[2].content_store 	decision_yes[2] 	307791
scalar abilene_nodelay_network.node[2].content_store 	decision_no[2] 	85344
scalar abilene_nodelay_network.node[2].content_store 	decision_ratio[2] 	0.7829142660918
scalar abilene_nodelay_network.node[2].content_store 	"representation_breakdown[2] 31590:5516:2449:1631:3978:" 	0
scalar abilene_nodelay_network.node[2].proactive_component 	hdistance[2].proactive_component 	2.0299162226845
scalar abilene_nodelay_network.node[2].proactive_component 	downloads[2].proactive_component 	1143627
scalar abilene_nodelay_network.node[2].proactive_component 	avg_time[2].proactive_component 	0
scalar abilene_nodelay_network.node[3].core_layer 	interests[3] 	518560
scalar abilene_nodelay_network.node[3].core_layer 	repo_load[3] 	80454
scalar abilene_nodelay_network.node[3].core_layer 	data[3] 	280698
scalar abilene_nodelay_network.node[3].core_layer 	slots_sent[face$o[1]->client[3]] 	125965152
scalar abilene_nodelay_network.node[3].core_layer 	slots_sent[face$o[2]->node[2]] 	38204741
scalar abilene_nodelay_network.node[3].core_layer 	slots_sent[face$o[3]->node[4]] 	23655464
scalar abilene_nodelay_network.node[3].core_layer 	slots_sent[face$o[4]->node[7]] 	17185785
scalar abilene_nodelay_network.node[3].content_store 	p_hit[3] 	0.30354828756557
scalar abilene_nodelay_network.node[3].content_store 	hits[3] 	157408
scalar abilene_nodelay_network.node[3].content_store 	misses[3] 	361152
scalar abilene_nodelay_network.node[3].content_store 	decision_yes[3] 	280698
scalar abilene_nodelay_network.node[3].content_store 	decision_no[3] 	80454
scalar abilene_nodelay_network.node[3].content_store 	decision_ratio[3] 	0.77722953216374
scalar abilene_nodelay_network.node[3].content_store 	"representation_breakdown[3] 31683:5578:2452:1576:3995:" 	0
scalar abilene_nodelay_network.node[3].proactive_component 	hdistance[3].proactive_component 	2.0398186869101
scalar abilene_nodelay_network.node[3].proactive_component 	downloads[3].proactive_component 	1077032
scalar abilene_nodelay_network.node[3].proactive_component 	avg_time[3].proactive_component 	0
scalar abilene_nodelay_network.node[4].core_layer 	interests[4] 	332784
scalar abilene_nodelay_network.node[4].core_layer 	repo_load[4] 	78139
scalar abilene_nodelay_network.node[4].core_layer 	data[4] 	127603
scalar abilene_nodelay_network.node[4].core_layer 	slots_sent[face$o[1]->client[4]] 	126853262
scalar abilene_nodelay_network.node[4].core_layer 	slots_sent[face$o[2]->node[3]] 	21287542
scalar abilene_nodelay_network.node[4].core_layer 	slots_sent[face$o[3]->node[5]] 	12697819
scalar abilene_nodelay_network.node[4].content_store 	p_hit[4] 	0.38175513245829
scalar abilene_nodelay_network.node[4].content_store 	hits[4] 	127042
scalar abilene_nodelay_network.node[4].content_store 	misses[4] 	205742
scalar abilene_nodelay_network.node[4].content_store 	decision_yes[4] 	127603
scalar abilene_nodelay_network.node[4].content_store 	decision_no[4] 	78139
scalar abilene_nodelay_network.node[4].content_store 	decision_ratio[4] 	0.62020880520263
scalar abilene_nodelay_network.node[4].content_store 	"representation_breakdown[4] 30689:5175:2191:1480:4341:" 	0
scalar abilene_nodelay_network.node[4].proactive_component 	hdistance[4].proactive_component 	2.2300222883506
scalar abilene_nodelay_network.node[4].proactive_component 	downloads[4].proactive_component 	583713
scalar abilene_nodelay_network.node[4].proactive_component 	avg_time[4].proactive_component 	0
scalar abilene_nodelay_network.node[5].core_layer 	interests[5] 	272190
scalar abilene_nodelay_network.node[5].core_layer 	repo_load[5] 	72179
scalar abilene_nodelay_network.node[5].core_layer 	data[5] 	78506
scalar abilene_nodelay_network.node[5].core_layer 	slots_sent[face$o[1]->client[5]] 	133593498
scalar abilene_nodelay_network.node[5].core_layer 	slots_sent[face$o[2]->node[4]] 	11478578
scalar abilene_nodelay_network.node[5].core_layer 	slots_sent[face$o[3]->node[6]] 	8439216
scalar abilene_nodelay_network.node[5].content_store 	p_hit[5] 	0.44639773687498
scalar abilene_nodelay_network.node[5].content_store 	hits[5] 	121505
scalar abilene_nodelay_network.node[5].content_store 	misses[5] 	150685
scalar abilene_nodelay_network.node[5].content_store 	decision_yes[5] 	78506
scalar abilene_nodelay_network.node[5].content_store 	decision_no[5] 	72179
scalar abilene_nodelay_network.node[5].content_store 	decision_ratio[5] 	0.52099412682085
scalar abilene_nodelay_network.node[5].content_store 	"representation_breakdown[5] 31255:4781:1943:1210:4671:" 	0
scalar abilene_nodelay_network.node[5].proactive_component 	hdistance[5].proactive_component 	2.2709605636671
scalar abilene_nodelay_network.node[5].proactive_component 	downloads[5].proactive_component 	402649
scalar abilene_nodelay_network.node[5].proactive_component 	avg_time[5].proactive_component 	0
scalar abilene_nodelay_network.node[6].core_layer 	interests[6] 	301797
scalar abilene_nodelay_network.node[6].core_layer 	repo_load[6] 	89580
scalar abilene_nodelay_network.node[6].core_layer 	data[6] 	104181
scalar abilene_nodelay_network.node[6].core_layer 	slots_sent[face$o[1]->client[6]] 	112105363
scalar abilene_nodelay_network.node[6].core_layer 	slots_sent[face$o[2]->node[5]] 	8829181
scalar abilene_nodelay_network.node[6].core_layer 	slots_sent[face$o[3]->node[7]] 	17947287
scalar abilene_nodelay_network.node[6].content_store 	p_hit[6] 	0.35797572540483
scalar abilene_nodelay_network.node[6].content_store 	hits[6] 	108036
scalar abilene_nodelay_network.node[6].content_store 	misses[6] 	193761
scalar abilene_nodelay_network.node[6].content_store 	decision_yes[6] 	104181
scalar abilene_nodelay_network.node[6].content_store 	decision_no[6] 	89580
scalar abilene_nodelay_network.node[6].content_store 	decision_ratio[6] 	0.53767786086983
scalar abilene_nodelay_network.node[6].content_store 	"representation_breakdown[6] 31401:5011:2058:1344:4467:" 	0
scalar abilene_nodelay_network.node[6].proactive_component 	hdistance[6].proactive_component 	2.1836591819702
scalar abilene_nodelay_network.node[6].proactive_component 	downloads[6].proactive_component 	505654
scalar abilene_nodelay_network.node[6].proactive_component 	avg_time[6].proactive_component 	0
scalar abilene_nodelay_network.node[7].core_layer 	interests[7] 	401222
scalar abilene_nodelay_network.node[7].core_layer 	repo_load[7] 	87484
scalar abilene_nodelay_network.node[7].core_layer 	data[7] 	178507
scalar abilene_nodelay_network.node[7].core_layer 	slots_sent[face$o[1]->client[7]] 	122023883
scalar abilene_nodelay_network.node[7].core_layer 	slots_sent[face$o[2]->node[3]] 	16043422
scalar abilene_nodelay_network.node[7].core_layer 	slots_sent[face$o[3]->node[6]] 	20040727
scalar abilene_nodelay_network.node[7].core_layer 	slots_sent[face$o[4]->node[8]] 	14358282
scalar abilene_nodelay_network.node[7].content_store 	p_hit[7] 	0.33704781891322
scalar abilene_nodelay_network.node[7].content_store 	hits[7] 	135231
scalar abilene_nodelay_network.node[7].content_store 	misses[7] 	265991
scalar abilene_nodelay_network.node[7].content_store 	decision_yes[7] 	178507
scalar abilene_nodelay_network.node[7].content_store 	decision_no[7] 	87484
scalar abilene_nodelay_network.node[7].content_store 	decision_ratio[7] 	0.67110165381535
scalar abilene_nodelay_network.node[7].content_store 	"representation_breakdown[7] 31103:5163:2274:1392:4336:" 	0
scalar abilene_nodelay_network.node[7].proactive_component 	hdistance[7].proactive_component 	1.9851503332662
scalar abilene_nodelay_network.node[7].proactive_component 	downloads[7].proactive_component 	784058
scalar abilene_nodelay_network.node[7].proactive_component 	avg_time[7].proactive_component 	0
scalar abilene_nodelay_network.node[8].core_layer 	interests[8] 	386123
scalar abilene_nodelay_network.node[8].core_layer 	repo_load[8] 	78688
scalar abilene_nodelay_network.node[8].core_layer 	data[8] 	167465
scalar abilene_nodelay_network.node[8].core_layer 	slots_sent[face$o[1]->client[8]] 	129275553
scalar abilene_nodelay_network.node[8].core_layer 	slots_sent[face$o[2]->node[2]] 	14172766
scalar abilene_nodelay_network.node[8].core_layer 	slots_sent[face$o[3]->node[7]] 	13986746
scalar abilene_nodelay_network.node[8].core_layer 	slots_sent[face$o[4]->node[9]] 	17959293
scalar abilene_nodelay_network.node[8].content_store 	p_hit[8] 	0.36250106831243
scalar abilene_nodelay_network.node[8].content_store 	hits[8] 	139970
scalar abilene_nodelay_network.node[8].content_store 	misses[8] 	246153
scalar abilene_nodelay_network.node[8].content_store 	decision_yes[8] 	167465
scalar abilene_nodelay_network.node[8].content_store 	decision_no[8] 	78688
scalar abilene_nodelay_network.node[8].content_store 	decision_ratio[8] 	0.6803289011306
scalar abilene_nodelay_network.node[8].content_store 	"representation_breakdown[8] 30591:5122:2271:1450:4348:" 	0
scalar abilene_nodelay_network.node[8].proactive_component 	hdistance[8].proactive_component 	1.9606874102189
scalar abilene_nodelay_network.node[8].proactive_component 	downloads[8].proactive_component 	758790
scalar abilene_nodelay_network.node[8].proactive_component 	avg_time[8].proactive_component 	0
scalar abilene_nodelay_network.node[9].core_layer 	interests[9] 	303548
scalar abilene_nodelay_network.node[9].core_layer 	repo_load[9] 	75356
scalar abilene_nodelay_network.node[9].core_layer 	data[9] 	104520
scalar abilene_nodelay_network.node[9].core_layer 	slots_sent[face$o[1]->client[9]] 	127892241
scalar abilene_nodelay_network.node[9].core_layer 	slots_sent[face$o[2]->node[10]] 	10639512
scalar abilene_nodelay_network.node[9].core_layer 	slots_sent[face$o[3]->node[8]] 	16657481
scalar abilene_nodelay_network.node[9].content_store 	p_hit[9] 	0.40742156100518
scalar abilene_nodelay_network.node[9].content_store 	hits[9] 	123672
scalar abilene_nodelay_network.node[9].content_store 	misses[9] 	179876
scalar abilene_nodelay_network.node[9].content_store 	decision_yes[9] 	104520
scalar abilene_nodelay_network.node[9].content_store 	decision_no[9] 	75356
scalar abilene_nodelay_network.node[9].content_store 	decision_ratio[9] 	0.58106695723721
scalar abilene_nodelay_network.node[9].content_store 	"representation_breakdown[9] 32216:4917:2095:1345:4400:" 	0
scalar abilene_nodelay_network.node[9].proactive_component 	hdistance[9].proactive_component 	2.0906691369126
scalar abilene_nodelay_network.node[9].proactive_component 	downloads[9].proactive_component 	516008
scalar abilene_nodelay_network.node[9].proactive_component 	avg_time[9].proactive_component 	0
scalar abilene_nodelay_network.node[10].core_layer 	interests[10] 	296382
scalar abilene_nodelay_network.node[10].core_layer 	repo_load[10] 	78157
scalar abilene_nodelay_network.node[10].core_layer 	data[10] 	93606
scalar abilene_nodelay_network.node[10].core_layer 	slots_sent[face$o[1]->client[10]] 	130010758
scalar abilene_nodelay_network.node[10].core_layer 	slots_sent[face$o[2]->node[0]] 	3736688
scalar abilene_nodelay_network.node[10].core_layer 	slots_sent[face$o[3]->node[1]] 	10678248
scalar abilene_nodelay_network.node[10].core_layer 	slots_sent[face$o[4]->node[9]] 	10556970
scalar abilene_nodelay_network.node[10].content_store 	p_hit[10] 	0.42046750477424
scalar abilene_nodelay_network.node[10].content_store 	hits[10] 	124619
scalar abilene_nodelay_network.node[10].content_store 	misses[10] 	171763
scalar abilene_nodelay_network.node[10].content_store 	decision_yes[10] 	93606
scalar abilene_nodelay_network.node[10].content_store 	decision_no[10] 	78157
scalar abilene_nodelay_network.node[10].content_store 	decision_ratio[10] 	0.54497185074783
scalar abilene_nodelay_network.node[10].content_store 	"representation_breakdown[10] 31680:4854:2052:1371:4458:" 	0
scalar abilene_nodelay_network.node[10].proactive_component 	hdistance[10].proactive_component 	2.1167052705097
scalar abilene_nodelay_network.node[10].proactive_component 	downloads[10].proactive_component 	506858
scalar abilene_nodelay_network.node[10].proactive_component 	avg_time[10].proactive_component 	0
scalar abilene_nodelay_network.client[0] 	hdistance[0].real 	1.0200803435686
scalar abilene_nodelay_network.client[0] 	downloads[0].real 	180226
scalar abilene_nodelay_network.client[0] 	avg_time[0].real 	0
scalar abilene_nodelay_network.client[1] 	hdistance[1].real 	0.91553630646718
scalar abilene_nodelay_network.client[1] 	downloads[1].real 	180326
scalar abilene_nodelay_network.client[1] 	avg_time[1].real 	0
scalar abilene_nodelay_network.client[2] 	hdistance[2].real 	0.86263922639338
scalar abilene_nodelay_network.client[2] 	downloads[2].real 	179833
scalar abilene_nodelay_network.client[2] 	avg_time[2].real 	0
scalar abilene_nodelay_network.client[3] 	hdistance[3].real 	0.85135496523445
scalar abilene_nodelay_network.client[3] 	downloads[3].real 	179488
scalar abilene_nodelay_network.client[3] 	avg_time[3].real 	0
scalar abilene_nodelay_network.client[4] 	hdistance[4].real 	0.98091164772254
scalar abilene_nodelay_network.client[4] 	downloads[4].real 	180267
scalar abilene_nodelay_network.client[4] 	avg_time[4].real 	0
scalar abilene_nodelay_network.client[5] 	hdistance[5].real 	1.0048951515219
scalar abilene_nodelay_network.client[5] 	downloads[5].real 	179974
scalar abilene_nodelay_network.client[5] 	avg_time[5].real 	0
scalar abilene_nodelay_network.client[6] 	hdistance[6].real 	1.0750453387332
scalar abilene_nodelay_network.client[6] 	downloads[6].real 	179758
scalar abilene_nodelay_network.client[6] 	avg_time[6].real 	0
scalar abilene_nodelay_network.client[7] 	hdistance[7].real 	0.88355222291241
scalar abilene_nodelay_network.client[7] 	downloads[7].real 	180304
scalar abilene_nodelay_network.client[7] 	avg_time[7].real 	0
scalar abilene_nodelay_network.client[8] 	hdistance[8].real 	0.8179686631848
scalar abilene_nodelay_network.client[8] 	downloads[8].real 	179980
scalar abilene_nodelay_network.client[8] 	avg_time[8].real 	0
scalar abilene_nodelay_network.client[9] 	hdistance[9].real 	0.92667753584882
scalar abilene_nodelay_network.client[9] 	downloads[9].real 	179713
scalar abilene_nodelay_network.client[9] 	avg_time[9].real 	0
scalar abilene_nodelay_network.client[10] 	hdistance[10].real 	0.95058948792742
scalar abilene_nodelay_network.client[10] 	downloads[10].real 	180326
scalar abilene_nodelay_network.client[10] 	avg_time[10].real 	0
