version 2
run General-8-20150720-18:59:58-13278
attr C 1e4
attr D lce
attr F spr
attr R lru_repr
attr a 1
attr brates 0.3_0.7_1.5_2.5_3.5
attr configname General
attr ctlg 1e6
attr datetime 20150720-18:59:58
attr experiment General
attr inifile omnetpp.ini
attr iterationvars "$net=abilene_nodelay, $rep=4, $lambda=100, $a=1, $ctlg=1e6, $brates=0.3_0.7_1.5_2.5_3.5, $F=spr, $ttl=1000, $D=lce, $R=lru_repr, $C=1e4, $window=60, $variance=0.05, $mytime=1800"
attr iterationvars2 "$net=abilene_nodelay, $rep=4, $lambda=100, $a=1, $ctlg=1e6, $brates=0.3_0.7_1.5_2.5_3.5, $F=spr, $ttl=1000, $D=lce, $R=lru_repr, $C=1e4, $window=60, $variance=0.05, $mytime=1800, $repetition=0"
attr lambda 100
attr measurement "$net=abilene_nodelay, $rep=4, $lambda=100, $a=1, $ctlg=1e6, $brates=0.3_0.7_1.5_2.5_3.5, $F=spr, $ttl=1000, $D=lce, $R=lru_repr, $C=1e4, $window=60, $variance=0.05, $mytime=1800"
attr mytime 1800
attr net abilene_nodelay
attr network networks.${net=abilene_nodelay}_network
attr processid 13278
attr rep 4
attr repetition 0
attr replication #0
attr resultdir results
attr runnumber 8
attr seedset 4
attr ttl 1000
attr variance 0.05
attr window 60

scalar . 	C 	1e4
scalar . 	a 	1
scalar . 	ctlg 	1e6
scalar . 	lambda 	100
scalar . 	mytime 	1800
scalar . 	rep 	4
scalar . 	ttl 	1000
scalar . 	variance 	0.05
scalar . 	window 	60
scalar abilene_nodelay_network.content_distribution 	repo-0 	2
scalar abilene_nodelay_network.content_distribution 	repo-1 	0
scalar abilene_nodelay_network.content_distribution 	repo-2 	10
scalar abilene_nodelay_network.content_distribution 	repo-3 	6
scalar abilene_nodelay_network.content_distribution 	repo-4 	4
scalar abilene_nodelay_network.content_distribution 	repo-5 	9
scalar abilene_nodelay_network.content_distribution 	repo-6 	3
scalar abilene_nodelay_network.content_distribution 	repo-7 	5
scalar abilene_nodelay_network.content_distribution 	repo-8 	1
scalar abilene_nodelay_network.content_distribution 	repo-9 	8
scalar abilene_nodelay_network.content_distribution 	repo-10 	7
scalar abilene_nodelay_network.content_distribution 	client-0 	3
scalar abilene_nodelay_network.content_distribution 	client-1 	5
scalar abilene_nodelay_network.content_distribution 	client-2 	8
scalar abilene_nodelay_network.content_distribution 	client-3 	10
scalar abilene_nodelay_network.content_distribution 	client-4 	1
scalar abilene_nodelay_network.content_distribution 	client-5 	7
scalar abilene_nodelay_network.content_distribution 	client-6 	6
scalar abilene_nodelay_network.content_distribution 	client-7 	0
scalar abilene_nodelay_network.content_distribution 	client-8 	4
scalar abilene_nodelay_network.content_distribution 	client-9 	9
scalar abilene_nodelay_network.content_distribution 	client-10 	2
scalar abilene_nodelay_network.content_distribution 	repo-0_card 	90884
scalar abilene_nodelay_network.content_distribution 	repo-0_price 	0
scalar abilene_nodelay_network.content_distribution 	repo-1_card 	90935
scalar abilene_nodelay_network.content_distribution 	repo-1_price 	0
scalar abilene_nodelay_network.content_distribution 	repo-2_card 	91184
scalar abilene_nodelay_network.content_distribution 	repo-2_price 	0
scalar abilene_nodelay_network.content_distribution 	repo-3_card 	90565
scalar abilene_nodelay_network.content_distribution 	repo-3_price 	0
scalar abilene_nodelay_network.content_distribution 	repo-4_card 	90993
scalar abilene_nodelay_network.content_distribution 	repo-4_price 	0
scalar abilene_nodelay_network.content_distribution 	repo-5_card 	90652
scalar abilene_nodelay_network.content_distribution 	repo-5_price 	0
scalar abilene_nodelay_network.content_distribution 	repo-6_card 	91293
scalar abilene_nodelay_network.content_distribution 	repo-6_price 	0
scalar abilene_nodelay_network.content_distribution 	repo-7_card 	90684
scalar abilene_nodelay_network.content_distribution 	repo-7_price 	0
scalar abilene_nodelay_network.content_distribution 	repo-8_card 	90808
scalar abilene_nodelay_network.content_distribution 	repo-8_price 	0
scalar abilene_nodelay_network.content_distribution 	repo-9_card 	90944
scalar abilene_nodelay_network.content_distribution 	repo-9_price 	0
scalar abilene_nodelay_network.content_distribution 	repo-10_card 	91058
scalar abilene_nodelay_network.content_distribution 	repo-10_price 	0
scalar abilene_nodelay_network.statistics 	stabilization_time 	36060
scalar abilene_nodelay_network.statistics 	p_hit 	0.3581188195234
scalar abilene_nodelay_network.statistics 	interests 	367469.45454545
scalar abilene_nodelay_network.statistics 	data 	155639.36363636
scalar abilene_nodelay_network.statistics 	hdistance 	0.93627637247475
scalar abilene_nodelay_network.statistics 	avg_time 	0
scalar abilene_nodelay_network.statistics 	downloads 	1977867
scalar abilene_nodelay_network.statistics 	total_cost 	0
scalar abilene_nodelay_network.statistics 	total_replicas 	1000000
scalar abilene_nodelay_network.statistics 	"representations_downloaded 0.38869:0.0331236:0.0235921:0.0199488:0.534646:" 	0
scalar abilene_nodelay_network.statistics 	"slots_per_representation 100:233:500:833:1167:" 	0
scalar abilene_nodelay_network.statistics 	inner_hit 	0.5537839500836
scalar abilene_nodelay_network.statistics 	execution_time 	1544
scalar abilene_nodelay_network.node[0].core_layer 	interests[0] 	256552
scalar abilene_nodelay_network.node[0].core_layer 	repo_load[0] 	89920
scalar abilene_nodelay_network.node[0].core_layer 	data[0] 	66644
scalar abilene_nodelay_network.node[0].core_layer 	slots_sent[face$o[1]->client[0]] 	115114583
scalar abilene_nodelay_network.node[0].core_layer 	slots_sent[face$o[2]->node[1]] 	12526262
scalar abilene_nodelay_network.node[0].core_layer 	slots_sent[face$o[3]->node[10]] 	3460710
scalar abilene_nodelay_network.node[0].content_store 	p_hit[0] 	0.38973775297016
scalar abilene_nodelay_network.node[0].content_store 	hits[0] 	99988
scalar abilene_nodelay_network.node[0].content_store 	misses[0] 	156564
scalar abilene_nodelay_network.node[0].content_store 	decision_yes[0] 	66644
scalar abilene_nodelay_network.node[0].content_store 	decision_no[0] 	89920
scalar abilene_nodelay_network.node[0].content_store 	decision_ratio[0] 	0.42566618124218
scalar abilene_nodelay_network.node[0].content_store 	"representation_breakdown[0] 30861:4419:1867:1278:4761:" 	0
scalar abilene_nodelay_network.node[0].proactive_component 	hdistance[0].proactive_component 	2.5777284604646
scalar abilene_nodelay_network.node[0].proactive_component 	downloads[0].proactive_component 	335244
scalar abilene_nodelay_network.node[0].proactive_component 	avg_time[0].proactive_component 	0
scalar abilene_nodelay_network.node[1].core_layer 	interests[1] 	424133
scalar abilene_nodelay_network.node[1].core_layer 	repo_load[1] 	85090
scalar abilene_nodelay_network.node[1].core_layer 	data[1] 	204186
scalar abilene_nodelay_network.node[1].core_layer 	slots_sent[face$o[1]->client[1]] 	120083311
scalar abilene_nodelay_network.node[1].core_layer 	slots_sent[face$o[2]->node[0]] 	14907890
scalar abilene_nodelay_network.node[1].core_layer 	slots_sent[face$o[3]->node[10]] 	11452176
scalar abilene_nodelay_network.node[1].core_layer 	slots_sent[face$o[4]->node[2]] 	30126830
scalar abilene_nodelay_network.node[1].content_store 	p_hit[1] 	0.31795922505441
scalar abilene_nodelay_network.node[1].content_store 	hits[1] 	134857
scalar abilene_nodelay_network.node[1].content_store 	misses[1] 	289276
scalar abilene_nodelay_network.node[1].content_store 	decision_yes[1] 	204186
scalar abilene_nodelay_network.node[1].content_store 	decision_no[1] 	85090
scalar abilene_nodelay_network.node[1].content_store 	decision_ratio[1] 	0.70585185082758
scalar abilene_nodelay_network.node[1].content_store 	"representation_breakdown[1] 31866:5495:2330:1524:4086:" 	0
scalar abilene_nodelay_network.node[1].proactive_component 	hdistance[1].proactive_component 	2.1328083829414
scalar abilene_nodelay_network.node[1].proactive_component 	downloads[1].proactive_component 	819760
scalar abilene_nodelay_network.node[1].proactive_component 	avg_time[1].proactive_component 	0
scalar abilene_nodelay_network.node[2].core_layer 	interests[2] 	549325
scalar abilene_nodelay_network.node[2].core_layer 	repo_load[2] 	80646
scalar abilene_nodelay_network.node[2].core_layer 	data[2] 	308121
scalar abilene_nodelay_network.node[2].core_layer 	slots_sent[face$o[1]->client[2]] 	124085546
scalar abilene_nodelay_network.node[2].core_layer 	slots_sent[face$o[2]->node[1]] 	32231987
scalar abilene_nodelay_network.node[2].core_layer 	slots_sent[face$o[3]->node[3]] 	38145736
scalar abilene_nodelay_network.node[2].core_layer 	slots_sent[face$o[4]->node[8]] 	15534753
scalar abilene_nodelay_network.node[2].content_store 	p_hit[2] 	0.29228234651618
scalar abilene_nodelay_network.node[2].content_store 	hits[2] 	160558
scalar abilene_nodelay_network.node[2].content_store 	misses[2] 	388767
scalar abilene_nodelay_network.node[2].content_store 	decision_yes[2] 	308121
scalar abilene_nodelay_network.node[2].content_store 	decision_no[2] 	80646
scalar abilene_nodelay_network.node[2].content_store 	decision_ratio[2] 	0.79255955366582
scalar abilene_nodelay_network.node[2].content_store 	"representation_breakdown[2] 31658:5596:2428:1598:3989:" 	0
scalar abilene_nodelay_network.node[2].proactive_component 	hdistance[2].proactive_component 	2.0301078525109
scalar abilene_nodelay_network.node[2].proactive_component 	downloads[2].proactive_component 	1155745
scalar abilene_nodelay_network.node[2].proactive_component 	avg_time[2].proactive_component 	0
scalar abilene_nodelay_network.node[3].core_layer 	interests[3] 	520511
scalar abilene_nodelay_network.node[3].core_layer 	repo_load[3] 	82359
scalar abilene_nodelay_network.node[3].core_layer 	data[3] 	280548
scalar abilene_nodelay_network.node[3].core_layer 	slots_sent[face$o[1]->client[3]] 	125745025
scalar abilene_nodelay_network.node[3].core_layer 	slots_sent[face$o[2]->node[2]] 	38504107
scalar abilene_nodelay_network.node[3].core_layer 	slots_sent[face$o[3]->node[4]] 	23720980
scalar abilene_nodelay_network.node[3].core_layer 	slots_sent[face$o[4]->node[7]] 	17077489
scalar abilene_nodelay_network.node[3].content_store 	p_hit[3] 	0.30278706886118
scalar abilene_nodelay_network.node[3].content_store 	hits[3] 	157604
scalar abilene_nodelay_network.node[3].content_store 	misses[3] 	362907
scalar abilene_nodelay_network.node[3].content_store 	decision_yes[3] 	280548
scalar abilene_nodelay_network.node[3].content_store 	decision_no[3] 	82359
scalar abilene_nodelay_network.node[3].content_store 	decision_ratio[3] 	0.77305756020137
scalar abilene_nodelay_network.node[3].content_store 	"representation_breakdown[3] 31553:5456:2434:1602:4020:" 	0
scalar abilene_nodelay_network.node[3].proactive_component 	hdistance[3].proactive_component 	2.0393720124628
scalar abilene_nodelay_network.node[3].proactive_component 	downloads[3].proactive_component 	1079066
scalar abilene_nodelay_network.node[3].proactive_component 	avg_time[3].proactive_component 	0
scalar abilene_nodelay_network.node[4].core_layer 	interests[4] 	334737
scalar abilene_nodelay_network.node[4].core_layer 	repo_load[4] 	78478
scalar abilene_nodelay_network.node[4].core_layer 	data[4] 	128363
scalar abilene_nodelay_network.node[4].core_layer 	slots_sent[face$o[1]->client[4]] 	127594629
scalar abilene_nodelay_network.node[4].core_layer 	slots_sent[face$o[2]->node[3]] 	21943952
scalar abilene_nodelay_network.node[4].core_layer 	slots_sent[face$o[3]->node[5]] 	12902275
scalar abilene_nodelay_network.node[4].content_store 	p_hit[4] 	0.38207906505704
scalar abilene_nodelay_network.node[4].content_store 	hits[4] 	127896
scalar abilene_nodelay_network.node[4].content_store 	misses[4] 	206841
scalar abilene_nodelay_network.node[4].content_store 	decision_yes[4] 	128363
scalar abilene_nodelay_network.node[4].content_store 	decision_no[4] 	78478
scalar abilene_nodelay_network.node[4].content_store 	decision_ratio[4] 	0.62058779448949
scalar abilene_nodelay_network.node[4].content_store 	"representation_breakdown[4] 30801:5094:2292:1490:4298:" 	0
scalar abilene_nodelay_network.node[4].proactive_component 	hdistance[4].proactive_component 	2.2370061158777
scalar abilene_nodelay_network.node[4].proactive_component 	downloads[4].proactive_component 	583563
scalar abilene_nodelay_network.node[4].proactive_component 	avg_time[4].proactive_component 	0
scalar abilene_nodelay_network.node[5].core_layer 	interests[5] 	271736
scalar abilene_nodelay_network.node[5].core_layer 	repo_load[5] 	72156
scalar abilene_nodelay_network.node[5].core_layer 	data[5] 	79588
scalar abilene_nodelay_network.node[5].core_layer 	slots_sent[face$o[1]->client[5]] 	131526427
scalar abilene_nodelay_network.node[5].core_layer 	slots_sent[face$o[2]->node[4]] 	11635920
scalar abilene_nodelay_network.node[5].core_layer 	slots_sent[face$o[3]->node[6]] 	8521916
scalar abilene_nodelay_network.node[5].content_store 	p_hit[5] 	0.44157564695145
scalar abilene_nodelay_network.node[5].content_store 	hits[5] 	119992
scalar abilene_nodelay_network.node[5].content_store 	misses[5] 	151744
scalar abilene_nodelay_network.node[5].content_store 	decision_yes[5] 	79588
scalar abilene_nodelay_network.node[5].content_store 	decision_no[5] 	72156
scalar abilene_nodelay_network.node[5].content_store 	decision_ratio[5] 	0.52448861239983
scalar abilene_nodelay_network.node[5].content_store 	"representation_breakdown[5] 31394:4737:2008:1277:4592:" 	0
scalar abilene_nodelay_network.node[5].proactive_component 	hdistance[5].proactive_component 	2.2720219887397
scalar abilene_nodelay_network.node[5].proactive_component 	downloads[5].proactive_component 	406026
scalar abilene_nodelay_network.node[5].proactive_component 	avg_time[5].proactive_component 	0
scalar abilene_nodelay_network.node[6].core_layer 	interests[6] 	301245
scalar abilene_nodelay_network.node[6].core_layer 	repo_load[6] 	72423
scalar abilene_nodelay_network.node[6].core_layer 	data[6] 	103530
scalar abilene_nodelay_network.node[6].core_layer 	slots_sent[face$o[1]->client[6]] 	130720391
scalar abilene_nodelay_network.node[6].core_layer 	slots_sent[face$o[2]->node[5]] 	8920039
scalar abilene_nodelay_network.node[6].core_layer 	slots_sent[face$o[3]->node[7]] 	17876101
scalar abilene_nodelay_network.node[6].content_store 	p_hit[6] 	0.41591395707813
scalar abilene_nodelay_network.node[6].content_store 	hits[6] 	125292
scalar abilene_nodelay_network.node[6].content_store 	misses[6] 	175953
scalar abilene_nodelay_network.node[6].content_store 	decision_yes[6] 	103530
scalar abilene_nodelay_network.node[6].content_store 	decision_no[6] 	72423
scalar abilene_nodelay_network.node[6].content_store 	decision_ratio[6] 	0.58839576477809
scalar abilene_nodelay_network.node[6].content_store 	"representation_breakdown[6] 31060:4879:2101:1340:4507:" 	0
scalar abilene_nodelay_network.node[6].proactive_component 	hdistance[6].proactive_component 	2.1781948507378
scalar abilene_nodelay_network.node[6].proactive_component 	downloads[6].proactive_component 	505587
scalar abilene_nodelay_network.node[6].proactive_component 	avg_time[6].proactive_component 	0
scalar abilene_nodelay_network.node[7].core_layer 	interests[7] 	399211
scalar abilene_nodelay_network.node[7].core_layer 	repo_load[7] 	82543
scalar abilene_nodelay_network.node[7].core_layer 	data[7] 	177235
scalar abilene_nodelay_network.node[7].core_layer 	slots_sent[face$o[1]->client[7]] 	126727324
scalar abilene_nodelay_network.node[7].core_layer 	slots_sent[face$o[2]->node[3]] 	15823731
scalar abilene_nodelay_network.node[7].core_layer 	slots_sent[face$o[3]->node[6]] 	19994842
scalar abilene_nodelay_network.node[7].core_layer 	slots_sent[face$o[4]->node[8]] 	14189865
scalar abilene_nodelay_network.node[7].content_store 	p_hit[7] 	0.34927143791128
scalar abilene_nodelay_network.node[7].content_store 	hits[7] 	139433
scalar abilene_nodelay_network.node[7].content_store 	misses[7] 	259778
scalar abilene_nodelay_network.node[7].content_store 	decision_yes[7] 	177235
scalar abilene_nodelay_network.node[7].content_store 	decision_no[7] 	82543
scalar abilene_nodelay_network.node[7].content_store 	decision_ratio[7] 	0.68225561825867
scalar abilene_nodelay_network.node[7].content_store 	"representation_breakdown[7] 30608:5177:2221:1486:4331:" 	0
scalar abilene_nodelay_network.node[7].proactive_component 	hdistance[7].proactive_component 	1.987502430083
scalar abilene_nodelay_network.node[7].proactive_component 	downloads[7].proactive_component 	792154
scalar abilene_nodelay_network.node[7].proactive_component 	avg_time[7].proactive_component 	0
scalar abilene_nodelay_network.node[8].core_layer 	interests[8] 	386016
scalar abilene_nodelay_network.node[8].core_layer 	repo_load[8] 	84538
scalar abilene_nodelay_network.node[8].core_layer 	data[8] 	166143
scalar abilene_nodelay_network.node[8].core_layer 	slots_sent[face$o[1]->client[8]] 	124611733
scalar abilene_nodelay_network.node[8].core_layer 	slots_sent[face$o[2]->node[2]] 	14402831
scalar abilene_nodelay_network.node[8].core_layer 	slots_sent[face$o[3]->node[7]] 	14130544
scalar abilene_nodelay_network.node[8].core_layer 	slots_sent[face$o[4]->node[9]] 	18279155
scalar abilene_nodelay_network.node[8].content_store 	p_hit[8] 	0.35059427588494
scalar abilene_nodelay_network.node[8].content_store 	hits[8] 	135335
scalar abilene_nodelay_network.node[8].content_store 	misses[8] 	250681
scalar abilene_nodelay_network.node[8].content_store 	decision_yes[8] 	166143
scalar abilene_nodelay_network.node[8].content_store 	decision_no[8] 	84538
scalar abilene_nodelay_network.node[8].content_store 	decision_ratio[8] 	0.66276662371699
scalar abilene_nodelay_network.node[8].content_store 	"representation_breakdown[8] 30431:5166:2199:1451:4383:" 	0
scalar abilene_nodelay_network.node[8].proactive_component 	hdistance[8].proactive_component 	1.9620592992488
scalar abilene_nodelay_network.node[8].proactive_component 	downloads[8].proactive_component 	750566
scalar abilene_nodelay_network.node[8].proactive_component 	avg_time[8].proactive_component 	0
scalar abilene_nodelay_network.node[9].core_layer 	interests[9] 	303083
scalar abilene_nodelay_network.node[9].core_layer 	repo_load[9] 	77898
scalar abilene_nodelay_network.node[9].core_layer 	data[9] 	104644
scalar abilene_nodelay_network.node[9].core_layer 	slots_sent[face$o[1]->client[9]] 	124338250
scalar abilene_nodelay_network.node[9].core_layer 	slots_sent[face$o[2]->node[10]] 	10702919
scalar abilene_nodelay_network.node[9].core_layer 	slots_sent[face$o[3]->node[8]] 	16285921
scalar abilene_nodelay_network.node[9].content_store 	p_hit[9] 	0.39771613716375
scalar abilene_nodelay_network.node[9].content_store 	hits[9] 	120541
scalar abilene_nodelay_network.node[9].content_store 	misses[9] 	182542
scalar abilene_nodelay_network.node[9].content_store 	decision_yes[9] 	104644
scalar abilene_nodelay_network.node[9].content_store 	decision_no[9] 	77898
scalar abilene_nodelay_network.node[9].content_store 	decision_ratio[9] 	0.57325985252709
scalar abilene_nodelay_network.node[9].content_store 	"representation_breakdown[9] 31658:4988:2037:1375:4437:" 	0
scalar abilene_nodelay_network.node[9].proactive_component 	hdistance[9].proactive_component 	2.0937095371534
scalar abilene_nodelay_network.node[9].proactive_component 	downloads[9].proactive_component 	517450
scalar abilene_nodelay_network.node[9].proactive_component 	avg_time[9].proactive_component 	0
scalar abilene_nodelay_network.node[10].core_layer 	interests[10] 	295615
scalar abilene_nodelay_network.node[10].core_layer 	repo_load[10] 	76505
scalar abilene_nodelay_network.node[10].core_layer 	data[10] 	93031
scalar abilene_nodelay_network.node[10].core_layer 	slots_sent[face$o[1]->client[10]] 	131846577
scalar abilene_nodelay_network.node[10].core_layer 	slots_sent[face$o[2]->node[0]] 	3698034
scalar abilene_nodelay_network.node[10].core_layer 	slots_sent[face$o[3]->node[1]] 	10688340
scalar abilene_nodelay_network.node[10].core_layer 	slots_sent[face$o[4]->node[9]] 	10301385
scalar abilene_nodelay_network.node[10].content_store 	p_hit[10] 	0.42649730223433
scalar abilene_nodelay_network.node[10].content_store 	hits[10] 	126079
scalar abilene_nodelay_network.node[10].content_store 	misses[10] 	169536
scalar abilene_nodelay_network.node[10].content_store 	decision_yes[10] 	93031
scalar abilene_nodelay_network.node[10].content_store 	decision_no[10] 	76505
scalar abilene_nodelay_network.node[10].content_store 	decision_ratio[10] 	0.54873891090978
scalar abilene_nodelay_network.node[10].content_store 	"representation_breakdown[10] 31580:4760:2089:1368:4472:" 	0
scalar abilene_nodelay_network.node[10].proactive_component 	hdistance[10].proactive_component 	2.1147859259512
scalar abilene_nodelay_network.node[10].proactive_component 	downloads[10].proactive_component 	499103
scalar abilene_nodelay_network.node[10].proactive_component 	avg_time[10].proactive_component 	0
scalar abilene_nodelay_network.client[0] 	hdistance[0].real 	1.1044184961337
scalar abilene_nodelay_network.client[0] 	downloads[0].real 	180016
scalar abilene_nodelay_network.client[0] 	avg_time[0].real 	0
scalar abilene_nodelay_network.client[1] 	hdistance[1].real 	0.95848256624826
scalar abilene_nodelay_network.client[1] 	downloads[1].real 	179250
scalar abilene_nodelay_network.client[1] 	avg_time[1].real 	0
scalar abilene_nodelay_network.client[2] 	hdistance[2].real 	0.83425288505882
scalar abilene_nodelay_network.client[2] 	downloads[2].real 	179979
scalar abilene_nodelay_network.client[2] 	avg_time[2].real 	0
scalar abilene_nodelay_network.client[3] 	hdistance[3].real 	0.84908508666286
scalar abilene_nodelay_network.client[3] 	downloads[3].real 	180181
scalar abilene_nodelay_network.client[3] 	avg_time[3].real 	0
scalar abilene_nodelay_network.client[4] 	hdistance[4].real 	0.98122308068025
scalar abilene_nodelay_network.client[4] 	downloads[4].real 	180168
scalar abilene_nodelay_network.client[4] 	avg_time[4].real 	0
scalar abilene_nodelay_network.client[5] 	hdistance[5].real 	1.0171892603376
scalar abilene_nodelay_network.client[5] 	downloads[5].real 	179298
scalar abilene_nodelay_network.client[5] 	avg_time[5].real 	0
scalar abilene_nodelay_network.client[6] 	hdistance[6].real 	0.97306052476317
scalar abilene_nodelay_network.client[6] 	downloads[6].real 	179662
scalar abilene_nodelay_network.client[6] 	avg_time[6].real 	0
scalar abilene_nodelay_network.client[7] 	hdistance[7].real 	0.85602366429617
scalar abilene_nodelay_network.client[7] 	downloads[7].real 	179849
scalar abilene_nodelay_network.client[7] 	avg_time[7].real 	0
scalar abilene_nodelay_network.client[8] 	hdistance[8].real 	0.84693604495584
scalar abilene_nodelay_network.client[8] 	downloads[8].real 	179376
scalar abilene_nodelay_network.client[8] 	avg_time[8].real 	0
scalar abilene_nodelay_network.client[9] 	hdistance[9].real 	0.93978252177004
scalar abilene_nodelay_network.client[9] 	downloads[9].real 	180064
scalar abilene_nodelay_network.client[9] 	avg_time[9].real 	0
scalar abilene_nodelay_network.client[10] 	hdistance[10].real 	0.9385859663156
scalar abilene_nodelay_network.client[10] 	downloads[10].real 	180024
scalar abilene_nodelay_network.client[10] 	avg_time[10].real 	0
