version 2
run General-16-20150720-19:26:14-15225
attr C 1e4
attr D lce
attr F spr
attr R lru_repr
attr a 1
attr brates 0.3_0.7_1.5_2.5_3.5
attr configname General
attr ctlg 1e6
attr datetime 20150720-19:26:14
attr experiment General
attr inifile omnetpp.ini
attr iterationvars "$net=abilene_nodelay, $rep=8, $lambda=100, $a=1, $ctlg=1e6, $brates=0.3_0.7_1.5_2.5_3.5, $F=spr, $ttl=1000, $D=lce, $R=lru_repr, $C=1e4, $window=60, $variance=0.05, $mytime=1800"
attr iterationvars2 "$net=abilene_nodelay, $rep=8, $lambda=100, $a=1, $ctlg=1e6, $brates=0.3_0.7_1.5_2.5_3.5, $F=spr, $ttl=1000, $D=lce, $R=lru_repr, $C=1e4, $window=60, $variance=0.05, $mytime=1800, $repetition=0"
attr lambda 100
attr measurement "$net=abilene_nodelay, $rep=8, $lambda=100, $a=1, $ctlg=1e6, $brates=0.3_0.7_1.5_2.5_3.5, $F=spr, $ttl=1000, $D=lce, $R=lru_repr, $C=1e4, $window=60, $variance=0.05, $mytime=1800"
attr mytime 1800
attr net abilene_nodelay
attr network networks.${net=abilene_nodelay}_network
attr processid 15225
attr rep 8
attr repetition 0
attr replication #0
attr resultdir results
attr runnumber 16
attr seedset 8
attr ttl 1000
attr variance 0.05
attr window 60

scalar . 	C 	1e4
scalar . 	a 	1
scalar . 	ctlg 	1e6
scalar . 	lambda 	100
scalar . 	mytime 	1800
scalar . 	rep 	8
scalar . 	ttl 	1000
scalar . 	variance 	0.05
scalar . 	window 	60
scalar abilene_nodelay_network.content_distribution 	repo-0 	4
scalar abilene_nodelay_network.content_distribution 	repo-1 	10
scalar abilene_nodelay_network.content_distribution 	repo-2 	6
scalar abilene_nodelay_network.content_distribution 	repo-3 	7
scalar abilene_nodelay_network.content_distribution 	repo-4 	2
scalar abilene_nodelay_network.content_distribution 	repo-5 	8
scalar abilene_nodelay_network.content_distribution 	repo-6 	9
scalar abilene_nodelay_network.content_distribution 	repo-7 	5
scalar abilene_nodelay_network.content_distribution 	repo-8 	1
scalar abilene_nodelay_network.content_distribution 	repo-9 	3
scalar abilene_nodelay_network.content_distribution 	repo-10 	0
scalar abilene_nodelay_network.content_distribution 	client-0 	9
scalar abilene_nodelay_network.content_distribution 	client-1 	0
scalar abilene_nodelay_network.content_distribution 	client-2 	2
scalar abilene_nodelay_network.content_distribution 	client-3 	5
scalar abilene_nodelay_network.content_distribution 	client-4 	4
scalar abilene_nodelay_network.content_distribution 	client-5 	10
scalar abilene_nodelay_network.content_distribution 	client-6 	1
scalar abilene_nodelay_network.content_distribution 	client-7 	6
scalar abilene_nodelay_network.content_distribution 	client-8 	8
scalar abilene_nodelay_network.content_distribution 	client-9 	3
scalar abilene_nodelay_network.content_distribution 	client-10 	7
scalar abilene_nodelay_network.content_distribution 	repo-0_card 	91455
scalar abilene_nodelay_network.content_distribution 	repo-0_price 	0
scalar abilene_nodelay_network.content_distribution 	repo-1_card 	90753
scalar abilene_nodelay_network.content_distribution 	repo-1_price 	0
scalar abilene_nodelay_network.content_distribution 	repo-2_card 	90990
scalar abilene_nodelay_network.content_distribution 	repo-2_price 	0
scalar abilene_nodelay_network.content_distribution 	repo-3_card 	90852
scalar abilene_nodelay_network.content_distribution 	repo-3_price 	0
scalar abilene_nodelay_network.content_distribution 	repo-4_card 	91138
scalar abilene_nodelay_network.content_distribution 	repo-4_price 	0
scalar abilene_nodelay_network.content_distribution 	repo-5_card 	90904
scalar abilene_nodelay_network.content_distribution 	repo-5_price 	0
scalar abilene_nodelay_network.content_distribution 	repo-6_card 	90400
scalar abilene_nodelay_network.content_distribution 	repo-6_price 	0
scalar abilene_nodelay_network.content_distribution 	repo-7_card 	90783
scalar abilene_nodelay_network.content_distribution 	repo-7_price 	0
scalar abilene_nodelay_network.content_distribution 	repo-8_card 	91409
scalar abilene_nodelay_network.content_distribution 	repo-8_price 	0
scalar abilene_nodelay_network.content_distribution 	repo-9_card 	90839
scalar abilene_nodelay_network.content_distribution 	repo-9_price 	0
scalar abilene_nodelay_network.content_distribution 	repo-10_card 	90477
scalar abilene_nodelay_network.content_distribution 	repo-10_price 	0
scalar abilene_nodelay_network.statistics 	stabilization_time 	36060
scalar abilene_nodelay_network.statistics 	p_hit 	0.35820586891614
scalar abilene_nodelay_network.statistics 	interests 	367535.72727273
scalar abilene_nodelay_network.statistics 	data 	155565.54545455
scalar abilene_nodelay_network.statistics 	hdistance 	0.93562260084174
scalar abilene_nodelay_network.statistics 	avg_time 	0
scalar abilene_nodelay_network.statistics 	downloads 	1979774
scalar abilene_nodelay_network.statistics 	total_cost 	0
scalar abilene_nodelay_network.statistics 	total_replicas 	1000000
scalar abilene_nodelay_network.statistics 	"representations_downloaded 0.38864:0.0329866:0.0236375:0.0200962:0.534639:" 	0
scalar abilene_nodelay_network.statistics 	"slots_per_representation 100:233:500:833:1167:" 	0
scalar abilene_nodelay_network.statistics 	inner_hit 	0.55374502342187
scalar abilene_nodelay_network.statistics 	execution_time 	1234
scalar abilene_nodelay_network.node[0].core_layer 	interests[0] 	256292
scalar abilene_nodelay_network.node[0].core_layer 	repo_load[0] 	74659
scalar abilene_nodelay_network.node[0].core_layer 	data[0] 	66501
scalar abilene_nodelay_network.node[0].core_layer 	slots_sent[face$o[1]->client[0]] 	131161132
scalar abilene_nodelay_network.node[0].core_layer 	slots_sent[face$o[2]->node[1]] 	12453352
scalar abilene_nodelay_network.node[0].core_layer 	slots_sent[face$o[3]->node[10]] 	3455161
scalar abilene_nodelay_network.node[0].content_store 	p_hit[0] 	0.44922198117772
scalar abilene_nodelay_network.node[0].content_store 	hits[0] 	115132
scalar abilene_nodelay_network.node[0].content_store 	misses[0] 	141160
scalar abilene_nodelay_network.node[0].content_store 	decision_yes[0] 	66501
scalar abilene_nodelay_network.node[0].content_store 	decision_no[0] 	74659
scalar abilene_nodelay_network.node[0].content_store 	decision_ratio[0] 	0.47110371209974
scalar abilene_nodelay_network.node[0].content_store 	"representation_breakdown[0] 30316:4307:1928:1257:4819:" 	0
scalar abilene_nodelay_network.node[0].proactive_component 	hdistance[0].proactive_component 	2.5789942476518
scalar abilene_nodelay_network.node[0].proactive_component 	downloads[0].proactive_component 	335689
scalar abilene_nodelay_network.node[0].proactive_component 	avg_time[0].proactive_component 	0
scalar abilene_nodelay_network.node[1].core_layer 	interests[1] 	424621
scalar abilene_nodelay_network.node[1].core_layer 	repo_load[1] 	81962
scalar abilene_nodelay_network.node[1].core_layer 	data[1] 	203342
scalar abilene_nodelay_network.node[1].core_layer 	slots_sent[face$o[1]->client[1]] 	124842528
scalar abilene_nodelay_network.node[1].core_layer 	slots_sent[face$o[2]->node[0]] 	14919605
scalar abilene_nodelay_network.node[1].core_layer 	slots_sent[face$o[3]->node[10]] 	11370787
scalar abilene_nodelay_network.node[1].core_layer 	slots_sent[face$o[4]->node[2]] 	29735050
scalar abilene_nodelay_network.node[1].content_store 	p_hit[1] 	0.32809729146698
scalar abilene_nodelay_network.node[1].content_store 	hits[1] 	139317
scalar abilene_nodelay_network.node[1].content_store 	misses[1] 	285304
scalar abilene_nodelay_network.node[1].content_store 	decision_yes[1] 	203342
scalar abilene_nodelay_network.node[1].content_store 	decision_no[1] 	81962
scalar abilene_nodelay_network.node[1].content_store 	decision_ratio[1] 	0.71272046659002
scalar abilene_nodelay_network.node[1].content_store 	"representation_breakdown[1] 31245:5348:2320:1539:4162:" 	0
scalar abilene_nodelay_network.node[1].proactive_component 	hdistance[1].proactive_component 	2.1348193058263
scalar abilene_nodelay_network.node[1].proactive_component 	downloads[1].proactive_component 	818095
scalar abilene_nodelay_network.node[1].proactive_component 	avg_time[1].proactive_component 	0
scalar abilene_nodelay_network.node[2].core_layer 	interests[2] 	549032
scalar abilene_nodelay_network.node[2].core_layer 	repo_load[2] 	80420
scalar abilene_nodelay_network.node[2].core_layer 	data[2] 	306821
scalar abilene_nodelay_network.node[2].core_layer 	slots_sent[face$o[1]->client[2]] 	125941446
scalar abilene_nodelay_network.node[2].core_layer 	slots_sent[face$o[2]->node[1]] 	32366818
scalar abilene_nodelay_network.node[2].core_layer 	slots_sent[face$o[3]->node[3]] 	38267533
scalar abilene_nodelay_network.node[2].core_layer 	slots_sent[face$o[4]->node[8]] 	15600406
scalar abilene_nodelay_network.node[2].content_store 	p_hit[2] 	0.29468409855892
scalar abilene_nodelay_network.node[2].content_store 	hits[2] 	161791
scalar abilene_nodelay_network.node[2].content_store 	misses[2] 	387241
scalar abilene_nodelay_network.node[2].content_store 	decision_yes[2] 	306821
scalar abilene_nodelay_network.node[2].content_store 	decision_no[2] 	80420
scalar abilene_nodelay_network.node[2].content_store 	decision_ratio[2] 	0.79232570931281
scalar abilene_nodelay_network.node[2].content_store 	"representation_breakdown[2] 32154:5678:2407:1580:3952:" 	0
scalar abilene_nodelay_network.node[2].proactive_component 	hdistance[2].proactive_component 	2.0306757902933
scalar abilene_nodelay_network.node[2].proactive_component 	downloads[2].proactive_component 	1150712
scalar abilene_nodelay_network.node[2].proactive_component 	avg_time[2].proactive_component 	0
scalar abilene_nodelay_network.node[3].core_layer 	interests[3] 	518825
scalar abilene_nodelay_network.node[3].core_layer 	repo_load[3] 	79583
scalar abilene_nodelay_network.node[3].core_layer 	data[3] 	281634
scalar abilene_nodelay_network.node[3].core_layer 	slots_sent[face$o[1]->client[3]] 	126166766
scalar abilene_nodelay_network.node[3].core_layer 	slots_sent[face$o[2]->node[2]] 	38192798
scalar abilene_nodelay_network.node[3].core_layer 	slots_sent[face$o[3]->node[4]] 	23615199
scalar abilene_nodelay_network.node[3].core_layer 	slots_sent[face$o[4]->node[7]] 	17137391
scalar abilene_nodelay_network.node[3].content_store 	p_hit[3] 	0.30377873078591
scalar abilene_nodelay_network.node[3].content_store 	hits[3] 	157608
scalar abilene_nodelay_network.node[3].content_store 	misses[3] 	361217
scalar abilene_nodelay_network.node[3].content_store 	decision_yes[3] 	281634
scalar abilene_nodelay_network.node[3].content_store 	decision_no[3] 	79583
scalar abilene_nodelay_network.node[3].content_store 	decision_ratio[3] 	0.77968091202795
scalar abilene_nodelay_network.node[3].content_store 	"representation_breakdown[3] 31813:5565:2379:1594:4005:" 	0
scalar abilene_nodelay_network.node[3].proactive_component 	hdistance[3].proactive_component 	2.0379892612207
scalar abilene_nodelay_network.node[3].proactive_component 	downloads[3].proactive_component 	1085412
scalar abilene_nodelay_network.node[3].proactive_component 	avg_time[3].proactive_component 	0
scalar abilene_nodelay_network.node[4].core_layer 	interests[4] 	334301
scalar abilene_nodelay_network.node[4].core_layer 	repo_load[4] 	77575
scalar abilene_nodelay_network.node[4].core_layer 	data[4] 	127681
scalar abilene_nodelay_network.node[4].core_layer 	slots_sent[face$o[1]->client[4]] 	129075823
scalar abilene_nodelay_network.node[4].core_layer 	slots_sent[face$o[2]->node[3]] 	21806189
scalar abilene_nodelay_network.node[4].core_layer 	slots_sent[face$o[3]->node[5]] 	12755232
scalar abilene_nodelay_network.node[4].content_store 	p_hit[4] 	0.38601440019623
scalar abilene_nodelay_network.node[4].content_store 	hits[4] 	129045
scalar abilene_nodelay_network.node[4].content_store 	misses[4] 	205256
scalar abilene_nodelay_network.node[4].content_store 	decision_yes[4] 	127681
scalar abilene_nodelay_network.node[4].content_store 	decision_no[4] 	77575
scalar abilene_nodelay_network.node[4].content_store 	decision_ratio[4] 	0.62205733328137
scalar abilene_nodelay_network.node[4].content_store 	"representation_breakdown[4] 31001:5075:2116:1420:4410:" 	0
scalar abilene_nodelay_network.node[4].proactive_component 	hdistance[4].proactive_component 	2.2382220630692
scalar abilene_nodelay_network.node[4].proactive_component 	downloads[4].proactive_component 	580853
scalar abilene_nodelay_network.node[4].proactive_component 	avg_time[4].proactive_component 	0
scalar abilene_nodelay_network.node[5].core_layer 	interests[5] 	272123
scalar abilene_nodelay_network.node[5].core_layer 	repo_load[5] 	78754
scalar abilene_nodelay_network.node[5].core_layer 	data[5] 	79115
scalar abilene_nodelay_network.node[5].core_layer 	slots_sent[face$o[1]->client[5]] 	125498654
scalar abilene_nodelay_network.node[5].core_layer 	slots_sent[face$o[2]->node[4]] 	11648512
scalar abilene_nodelay_network.node[5].core_layer 	slots_sent[face$o[3]->node[6]] 	8433122
scalar abilene_nodelay_network.node[5].content_store 	p_hit[5] 	0.41986160669991
scalar abilene_nodelay_network.node[5].content_store 	hits[5] 	114254
scalar abilene_nodelay_network.node[5].content_store 	misses[5] 	157869
scalar abilene_nodelay_network.node[5].content_store 	decision_yes[5] 	79115
scalar abilene_nodelay_network.node[5].content_store 	decision_no[5] 	78754
scalar abilene_nodelay_network.node[5].content_store 	decision_ratio[5] 	0.50114335303321
scalar abilene_nodelay_network.node[5].content_store 	"representation_breakdown[5] 31535:4568:1914:1294:4642:" 	0
scalar abilene_nodelay_network.node[5].proactive_component 	hdistance[5].proactive_component 	2.2634877740273
scalar abilene_nodelay_network.node[5].proactive_component 	downloads[5].proactive_component 	405571
scalar abilene_nodelay_network.node[5].proactive_component 	avg_time[5].proactive_component 	0
scalar abilene_nodelay_network.node[6].core_layer 	interests[6] 	301476
scalar abilene_nodelay_network.node[6].core_layer 	repo_load[6] 	85519
scalar abilene_nodelay_network.node[6].core_layer 	data[6] 	103870
scalar abilene_nodelay_network.node[6].core_layer 	slots_sent[face$o[1]->client[6]] 	116800206
scalar abilene_nodelay_network.node[6].core_layer 	slots_sent[face$o[2]->node[5]] 	9071787
scalar abilene_nodelay_network.node[6].core_layer 	slots_sent[face$o[3]->node[7]] 	17863480
scalar abilene_nodelay_network.node[6].content_store 	p_hit[6] 	0.37179410633019
scalar abilene_nodelay_network.node[6].content_store 	hits[6] 	112087
scalar abilene_nodelay_network.node[6].content_store 	misses[6] 	189389
scalar abilene_nodelay_network.node[6].content_store 	decision_yes[6] 	103870
scalar abilene_nodelay_network.node[6].content_store 	decision_no[6] 	85519
scalar abilene_nodelay_network.node[6].content_store 	decision_ratio[6] 	0.54844790352132
scalar abilene_nodelay_network.node[6].content_store 	"representation_breakdown[6] 31474:4832:2091:1358:4473:" 	0
scalar abilene_nodelay_network.node[6].proactive_component 	hdistance[6].proactive_component 	2.1744703159309
scalar abilene_nodelay_network.node[6].proactive_component 	downloads[6].proactive_component 	505490
scalar abilene_nodelay_network.node[6].proactive_component 	avg_time[6].proactive_component 	0
scalar abilene_nodelay_network.node[7].core_layer 	interests[7] 	400415
scalar abilene_nodelay_network.node[7].core_layer 	repo_load[7] 	92519
scalar abilene_nodelay_network.node[7].core_layer 	data[7] 	177556
scalar abilene_nodelay_network.node[7].core_layer 	slots_sent[face$o[1]->client[7]] 	116394198
scalar abilene_nodelay_network.node[7].core_layer 	slots_sent[face$o[2]->node[3]] 	16001158
scalar abilene_nodelay_network.node[7].core_layer 	slots_sent[face$o[3]->node[6]] 	20164010
scalar abilene_nodelay_network.node[7].core_layer 	slots_sent[face$o[4]->node[8]] 	14322279
scalar abilene_nodelay_network.node[7].content_store 	p_hit[7] 	0.32551228100845
scalar abilene_nodelay_network.node[7].content_store 	hits[7] 	130340
scalar abilene_nodelay_network.node[7].content_store 	misses[7] 	270075
scalar abilene_nodelay_network.node[7].content_store 	decision_yes[7] 	177556
scalar abilene_nodelay_network.node[7].content_store 	decision_no[7] 	92519
scalar abilene_nodelay_network.node[7].content_store 	decision_ratio[7] 	0.65743219476071
scalar abilene_nodelay_network.node[7].content_store 	"representation_breakdown[7] 30823:5322:2288:1426:4298:" 	0
scalar abilene_nodelay_network.node[7].proactive_component 	hdistance[7].proactive_component 	1.9915800880802
scalar abilene_nodelay_network.node[7].proactive_component 	downloads[7].proactive_component 	793595
scalar abilene_nodelay_network.node[7].proactive_component 	avg_time[7].proactive_component 	0
scalar abilene_nodelay_network.node[8].core_layer 	interests[8] 	387202
scalar abilene_nodelay_network.node[8].core_layer 	repo_load[8] 	86026
scalar abilene_nodelay_network.node[8].core_layer 	data[8] 	166370
scalar abilene_nodelay_network.node[8].core_layer 	slots_sent[face$o[1]->client[8]] 	124263510
scalar abilene_nodelay_network.node[8].core_layer 	slots_sent[face$o[2]->node[2]] 	14604868
scalar abilene_nodelay_network.node[8].core_layer 	slots_sent[face$o[3]->node[7]] 	14175749
scalar abilene_nodelay_network.node[8].core_layer 	slots_sent[face$o[4]->node[9]] 	18252745
scalar abilene_nodelay_network.node[8].content_store 	p_hit[8] 	0.34815419341842
scalar abilene_nodelay_network.node[8].content_store 	hits[8] 	134806
scalar abilene_nodelay_network.node[8].content_store 	misses[8] 	252396
scalar abilene_nodelay_network.node[8].content_store 	decision_yes[8] 	166370
scalar abilene_nodelay_network.node[8].content_store 	decision_no[8] 	86026
scalar abilene_nodelay_network.node[8].content_store 	decision_ratio[8] 	0.6591625857779
scalar abilene_nodelay_network.node[8].content_store 	"representation_breakdown[8] 30683:5053:2201:1440:4391:" 	0
scalar abilene_nodelay_network.node[8].proactive_component 	hdistance[8].proactive_component 	1.9640653757592
scalar abilene_nodelay_network.node[8].proactive_component 	downloads[8].proactive_component 	753062
scalar abilene_nodelay_network.node[8].proactive_component 	avg_time[8].proactive_component 	0
scalar abilene_nodelay_network.node[9].core_layer 	interests[9] 	303269
scalar abilene_nodelay_network.node[9].core_layer 	repo_load[9] 	71163
scalar abilene_nodelay_network.node[9].core_layer 	data[9] 	104930
scalar abilene_nodelay_network.node[9].core_layer 	slots_sent[face$o[1]->client[9]] 	131405385
scalar abilene_nodelay_network.node[9].core_layer 	slots_sent[face$o[2]->node[10]] 	10857628
scalar abilene_nodelay_network.node[9].core_layer 	slots_sent[face$o[3]->node[8]] 	16274377
scalar abilene_nodelay_network.node[9].content_store 	p_hit[9] 	0.41935047762877
scalar abilene_nodelay_network.node[9].content_store 	hits[9] 	127176
scalar abilene_nodelay_network.node[9].content_store 	misses[9] 	176093
scalar abilene_nodelay_network.node[9].content_store 	decision_yes[9] 	104930
scalar abilene_nodelay_network.node[9].content_store 	decision_no[9] 	71163
scalar abilene_nodelay_network.node[9].content_store 	decision_ratio[9] 	0.59587831429983
scalar abilene_nodelay_network.node[9].content_store 	"representation_breakdown[9] 31749:4820:2095:1320:4477:" 	0
scalar abilene_nodelay_network.node[9].proactive_component 	hdistance[9].proactive_component 	2.0908292067099
scalar abilene_nodelay_network.node[9].proactive_component 	downloads[9].proactive_component 	521209
scalar abilene_nodelay_network.node[9].proactive_component 	avg_time[9].proactive_component 	0
scalar abilene_nodelay_network.node[10].core_layer 	interests[10] 	295337
scalar abilene_nodelay_network.node[10].core_layer 	repo_load[10] 	75304
scalar abilene_nodelay_network.node[10].core_layer 	data[10] 	93401
scalar abilene_nodelay_network.node[10].core_layer 	slots_sent[face$o[1]->client[10]] 	132377543
scalar abilene_nodelay_network.node[10].core_layer 	slots_sent[face$o[2]->node[0]] 	3672275
scalar abilene_nodelay_network.node[10].core_layer 	slots_sent[face$o[3]->node[1]] 	10514765
scalar abilene_nodelay_network.node[10].core_layer 	slots_sent[face$o[4]->node[9]] 	10462785
scalar abilene_nodelay_network.node[10].content_store 	p_hit[10] 	0.42877120035756
scalar abilene_nodelay_network.node[10].content_store 	hits[10] 	126632
scalar abilene_nodelay_network.node[10].content_store 	misses[10] 	168705
scalar abilene_nodelay_network.node[10].content_store 	decision_yes[10] 	93401
scalar abilene_nodelay_network.node[10].content_store 	decision_no[10] 	75304
scalar abilene_nodelay_network.node[10].content_store 	decision_ratio[10] 	0.55363504341899
scalar abilene_nodelay_network.node[10].content_store 	"representation_breakdown[10] 31590:4802:2084:1311:4505:" 	0
scalar abilene_nodelay_network.node[10].proactive_component 	hdistance[10].proactive_component 	2.1125870914935
scalar abilene_nodelay_network.node[10].proactive_component 	downloads[10].proactive_component 	500910
scalar abilene_nodelay_network.node[10].proactive_component 	avg_time[10].proactive_component 	0
scalar abilene_nodelay_network.client[0] 	hdistance[0].real 	1.0217935830006
scalar abilene_nodelay_network.client[0] 	downloads[0].real 	180053
scalar abilene_nodelay_network.client[0] 	avg_time[0].real 	0
scalar abilene_nodelay_network.client[1] 	hdistance[1].real 	0.92920959142487
scalar abilene_nodelay_network.client[1] 	downloads[1].real 	179869
scalar abilene_nodelay_network.client[1] 	avg_time[1].real 	0
scalar abilene_nodelay_network.client[2] 	hdistance[2].real 	0.82347702173139
scalar abilene_nodelay_network.client[2] 	downloads[2].real 	179648
scalar abilene_nodelay_network.client[2] 	avg_time[2].real 	0
scalar abilene_nodelay_network.client[3] 	hdistance[3].real 	0.84693401466341
scalar abilene_nodelay_network.client[3] 	downloads[3].real 	180040
scalar abilene_nodelay_network.client[3] 	avg_time[3].real 	0
scalar abilene_nodelay_network.client[4] 	hdistance[4].real 	0.97310528392263
scalar abilene_nodelay_network.client[4] 	downloads[4].real 	179961
scalar abilene_nodelay_network.client[4] 	avg_time[4].real 	0
scalar abilene_nodelay_network.client[5] 	hdistance[5].real 	1.0496910988651
scalar abilene_nodelay_network.client[5] 	downloads[5].real 	179831
scalar abilene_nodelay_network.client[5] 	avg_time[5].real 	0
scalar abilene_nodelay_network.client[6] 	hdistance[6].real 	1.0530949365682
scalar abilene_nodelay_network.client[6] 	downloads[6].real 	180036
scalar abilene_nodelay_network.client[6] 	avg_time[6].real 	0
scalar abilene_nodelay_network.client[7] 	hdistance[7].real 	0.90618186267966
scalar abilene_nodelay_network.client[7] 	downloads[7].real 	179784
scalar abilene_nodelay_network.client[7] 	avg_time[7].real 	0
scalar abilene_nodelay_network.client[8] 	hdistance[8].real 	0.8482322602113
scalar abilene_nodelay_network.client[8] 	downloads[8].real 	180315
scalar abilene_nodelay_network.client[8] 	avg_time[8].real 	0
scalar abilene_nodelay_network.client[9] 	hdistance[9].real 	0.90470396728834
scalar abilene_nodelay_network.client[9] 	downloads[9].real 	179997
scalar abilene_nodelay_network.client[9] 	avg_time[9].real 	0
scalar abilene_nodelay_network.client[10] 	hdistance[10].real 	0.93542498890368
scalar abilene_nodelay_network.client[10] 	downloads[10].real 	180240
scalar abilene_nodelay_network.client[10] 	avg_time[10].real 	0
