version 2
run General-73-20150318-05:12:22-9232
attr D fix0.01
attr F nrr
attr R lru
attr a 1
attr configname General
attr csize 1e3
attr ctlg 1e5
attr datetime 20150318-05:12:22
attr experiment General
attr inifile omnetpp.ini
attr iterationvars "$rep=37, $net=cost_scenario, $lambda=100, $a=1, $ctlg=1e5, $F=nrr, $ttl=10, $D=fix0.01, $R=lru, $csize=1e3, $window=60, $variance=0.05, $mytime=1800000, $kappa=1, $priceratiovalue=10, $splits=0.333_0.333_0.334, $pricebits=0"
attr iterationvars2 "$rep=37, $net=cost_scenario, $lambda=100, $a=1, $ctlg=1e5, $F=nrr, $ttl=10, $D=fix0.01, $R=lru, $csize=1e3, $window=60, $variance=0.05, $mytime=1800000, $kappa=1, $priceratiovalue=10, $splits=0.333_0.333_0.334, $pricebits=0, $repetition=0"
attr kappa 1
attr lambda 100
attr measurement "$rep=37, $net=cost_scenario, $lambda=100, $a=1, $ctlg=1e5, $F=nrr, $ttl=10, $D=fix0.01, $R=lru, $csize=1e3, $window=60, $variance=0.05, $mytime=1800000, $kappa=1, $priceratiovalue=10, $splits=0.333_0.333_0.334, $pricebits=0"
attr mytime 1800000
attr net cost_scenario
attr network networks.${net=cost_scenario}_network
attr pricebits 0
attr priceratiovalue 10
attr processid 9232
attr rep 37
attr repetition 0
attr replication #0
attr resultdir results
attr runnumber 73
attr seedset 37
attr splits 0.333_0.333_0.334
attr ttl 10
attr variance 0.05
attr window 60

scalar . 	a 	1
scalar . 	csize 	1e3
scalar . 	ctlg 	1e5
scalar . 	kappa 	1
scalar . 	lambda 	100
scalar . 	mytime 	1800000
scalar . 	pricebits 	0
scalar . 	priceratiovalue 	10
scalar . 	rep 	37
scalar . 	ttl 	10
scalar . 	variance 	0.05
scalar . 	window 	60
scalar cost_scenario_network.content_distribution 	repo-0 	1
scalar cost_scenario_network.content_distribution 	repo-1 	2
scalar cost_scenario_network.content_distribution 	repo-2 	3
scalar cost_scenario_network.content_distribution 	client-0 	0
scalar cost_scenario_network.content_distribution 	repo-0_card 	33203
scalar cost_scenario_network.content_distribution 	repo-0_price 	10
scalar cost_scenario_network.content_distribution 	repo-1_card 	33472
scalar cost_scenario_network.content_distribution 	repo-1_price 	0
scalar cost_scenario_network.content_distribution 	repo-2_card 	33325
scalar cost_scenario_network.content_distribution 	repo-2_price 	1
scalar cost_scenario_network.statistics 	repo_popularity[0] 	0.29891147357809
scalar cost_scenario_network.statistics 	repo_popularity[1] 	0.30596072617169
scalar cost_scenario_network.statistics 	repo_popularity[2] 	0.39512780025024
scalar cost_scenario_network.statistics 	stabilization_time 	1760.9
scalar cost_scenario_network.statistics 	p_hit 	0.42764555818528
scalar cost_scenario_network.statistics 	interests 	63048859
scalar cost_scenario_network.statistics 	data 	18043147.25
scalar cost_scenario_network.statistics 	hdistance 	0.80181588284722
scalar cost_scenario_network.statistics 	avg_time 	0
scalar cost_scenario_network.statistics 	downloads 	180022847
scalar cost_scenario_network.statistics 	total_cost 	264572487
scalar cost_scenario_network.statistics 	total_replicas 	100000
scalar cost_scenario_network.statistics 	inner_hit 	0.59909205857632
scalar cost_scenario_network.statistics 	interests_sent 	180022847
scalar cost_scenario_network.node[0].core_layer 	interests[0] 	180022847
scalar cost_scenario_network.node[0].core_layer 	data[0] 	72172589
scalar cost_scenario_network.node[0].core_layer 	repo_int[0] 	72172589
scalar cost_scenario_network.node[0].content_store 	p_hit[0] 	0.59909205857632
scalar cost_scenario_network.node[0].content_store 	hits[0] 	107850258
scalar cost_scenario_network.node[0].content_store 	misses[0] 	72172589
scalar cost_scenario_network.node[0].content_store 	decision_yes[0] 	721896
scalar cost_scenario_network.node[0].content_store 	decision_no[0] 	71450693
scalar cost_scenario_network.node[0].content_store 	decision_ratio[0] 	0.010002356989023
scalar cost_scenario_network.node[0].content_store 	cache_value[0] 	23.073323583584
scalar cost_scenario_network.node[0].content_store 	average_price_of_cache[0] 	3.885
scalar cost_scenario_network.node[1].core_layer 	interests[1] 	24065848
scalar cost_scenario_network.node[1].core_layer 	repo_load[1] 	24065848
scalar cost_scenario_network.node[1].core_layer 	data[1] 	0
scalar cost_scenario_network.node[1].content_store 	p_hit[1] 	0
scalar cost_scenario_network.node[1].content_store 	hits[1] 	0
scalar cost_scenario_network.node[1].content_store 	misses[1] 	24065848
scalar cost_scenario_network.node[1].content_store 	decision_yes[1] 	0
scalar cost_scenario_network.node[1].content_store 	decision_no[1] 	24065848
scalar cost_scenario_network.node[1].content_store 	decision_ratio[1] 	0
scalar cost_scenario_network.node[1].content_store 	cache_value[1] 	6.9532385217621e-310
scalar cost_scenario_network.node[1].content_store 	average_price_of_cache[1] 	-nan
scalar cost_scenario_network.node[2].core_layer 	interests[2] 	24192734
scalar cost_scenario_network.node[2].core_layer 	repo_load[2] 	24192734
scalar cost_scenario_network.node[2].core_layer 	data[2] 	0
scalar cost_scenario_network.node[2].content_store 	p_hit[2] 	0
scalar cost_scenario_network.node[2].content_store 	hits[2] 	0
scalar cost_scenario_network.node[2].content_store 	misses[2] 	24192734
scalar cost_scenario_network.node[2].content_store 	decision_yes[2] 	0
scalar cost_scenario_network.node[2].content_store 	decision_no[2] 	24192734
scalar cost_scenario_network.node[2].content_store 	decision_ratio[2] 	0
scalar cost_scenario_network.node[2].content_store 	cache_value[2] 	6.9532385217621e-310
scalar cost_scenario_network.node[2].content_store 	average_price_of_cache[2] 	-nan
scalar cost_scenario_network.node[3].core_layer 	interests[3] 	23914007
scalar cost_scenario_network.node[3].core_layer 	repo_load[3] 	23914007
scalar cost_scenario_network.node[3].core_layer 	data[3] 	0
scalar cost_scenario_network.node[3].content_store 	p_hit[3] 	0
scalar cost_scenario_network.node[3].content_store 	hits[3] 	0
scalar cost_scenario_network.node[3].content_store 	misses[3] 	23914007
scalar cost_scenario_network.node[3].content_store 	decision_yes[3] 	0
scalar cost_scenario_network.node[3].content_store 	decision_no[3] 	23914007
scalar cost_scenario_network.node[3].content_store 	decision_ratio[3] 	0
scalar cost_scenario_network.node[3].content_store 	cache_value[3] 	6.9532385217621e-310
scalar cost_scenario_network.node[3].content_store 	average_price_of_cache[3] 	-nan
scalar cost_scenario_network.client[0] 	hdistance[0] 	0.80181588284722
scalar cost_scenario_network.client[0] 	downloads[0] 	180022847
scalar cost_scenario_network.client[0] 	avg_time[0] 	0
scalar cost_scenario_network.client[0] 	interests_sent[0] 	180022847
