version 2
run General-12-20140904-11:49:53-24220
attr D costprobprodcorr0.01
attr F spr
attr R lru
attr a 1
attr configname General
attr csize 1e3
attr ctlg 1e5
attr datetime 20140904-11:49:53
attr experiment General
attr inifile omnetpp.ini
attr iterationvars "$net=abilene_cost, $rep=8, $priceratiovalue=10, $weights=0.333_0.333_0.334, $lambda=100, $a=1, $ctlg=1e5, $F=spr, $ttl=10, $D=costprobprodcorr0.01, $xi=1, $R=lru, $csize=1e3, $pricebits=0, $window=60, $variance=0.05, $mytime=1800"
attr iterationvars2 "$net=abilene_cost, $rep=8, $priceratiovalue=10, $weights=0.333_0.333_0.334, $lambda=100, $a=1, $ctlg=1e5, $F=spr, $ttl=10, $D=costprobprodcorr0.01, $xi=1, $R=lru, $csize=1e3, $pricebits=0, $window=60, $variance=0.05, $mytime=1800, $repetition=0"
attr lambda 100
attr measurement "$net=abilene_cost, $rep=8, $priceratiovalue=10, $weights=0.333_0.333_0.334, $lambda=100, $a=1, $ctlg=1e5, $F=spr, $ttl=10, $D=costprobprodcorr0.01, $xi=1, $R=lru, $csize=1e3, $pricebits=0, $window=60, $variance=0.05, $mytime=1800"
attr mytime 1800
attr net abilene_cost
attr network networks.${net=abilene_cost}_network
attr pricebits 0
attr priceratiovalue 10
attr processid 24220
attr rep 8
attr repetition 0
attr replication #0
attr resultdir results
attr runnumber 12
attr seedset 8
attr ttl 10
attr variance 0.05
attr weights 0.333_0.333_0.334
attr window 60
attr xi 1

scalar . 	a 	1
scalar . 	csize 	1e3
scalar . 	ctlg 	1e5
scalar . 	lambda 	100
scalar . 	mytime 	1800
scalar . 	pricebits 	0
scalar . 	priceratiovalue 	10
scalar . 	rep 	8
scalar . 	ttl 	10
scalar . 	variance 	0.05
scalar . 	window 	60
scalar . 	xi 	1
scalar abilene_cost_network.content_distribution 	repo-0 	4
scalar abilene_cost_network.content_distribution 	repo-1 	10
scalar abilene_cost_network.content_distribution 	repo-2 	6
scalar abilene_cost_network.content_distribution 	client-0 	2
scalar abilene_cost_network.content_distribution 	client-1 	8
scalar abilene_cost_network.content_distribution 	client-2 	4
scalar abilene_cost_network.content_distribution 	repo-0_card 	33478
scalar abilene_cost_network.content_distribution 	repo-0_price 	10
scalar abilene_cost_network.content_distribution 	repo-1_card 	33258
scalar abilene_cost_network.content_distribution 	repo-1_price 	0
scalar abilene_cost_network.content_distribution 	repo-2_card 	33264
scalar abilene_cost_network.content_distribution 	repo-2_price 	1
scalar abilene_cost_network.statistics 	repo_popularity[0] 	0.31428049746668
scalar abilene_cost_network.statistics 	repo_popularity[1] 	0.42959256184477
scalar abilene_cost_network.statistics 	repo_popularity[2] 	0.25612694068856
scalar abilene_cost_network.statistics 	stabilization_time 	36060
scalar abilene_cost_network.statistics 	p_hit 	0.085432648425044
scalar abilene_cost_network.statistics 	interests 	147504.81818182
scalar abilene_cost_network.statistics 	data 	98533.454545455
scalar abilene_cost_network.statistics 	hdistance 	2.7947284203466
scalar abilene_cost_network.statistics 	avg_time 	0.012484077716
scalar abilene_cost_network.statistics 	downloads 	530631
scalar abilene_cost_network.statistics 	total_cost 	959302
scalar abilene_cost_network.statistics 	total_replicas 	100000
scalar abilene_cost_network.statistics 	inner_hit 	0.2680789475172
scalar abilene_cost_network.statistics 	interests_sent 	538681
scalar abilene_cost_network.node[0].core_layer 	interests[0] 	0
scalar abilene_cost_network.node[0].core_layer 	data[0] 	0
scalar abilene_cost_network.node[0].core_layer 	repo_int[0] 	388380
scalar abilene_cost_network.node[0].content_store 	p_hit[0] 	-nan
scalar abilene_cost_network.node[0].content_store 	hits[0] 	0
scalar abilene_cost_network.node[0].content_store 	misses[0] 	0
scalar abilene_cost_network.node[0].content_store 	decision_yes[0] 	0
scalar abilene_cost_network.node[0].content_store 	decision_no[0] 	0
scalar abilene_cost_network.node[0].content_store 	decision_ratio[0] 	0
scalar abilene_cost_network.node[0].content_store 	correction_factor[0] 	0.0027225701061802
scalar abilene_cost_network.node[0].content_store 	xi[0] 	1
scalar abilene_cost_network.node[1].core_layer 	interests[1] 	145595
scalar abilene_cost_network.node[1].core_layer 	data[1] 	145595
scalar abilene_cost_network.node[1].content_store 	p_hit[1] 	0
scalar abilene_cost_network.node[1].content_store 	hits[1] 	0
scalar abilene_cost_network.node[1].content_store 	misses[1] 	145595
scalar abilene_cost_network.node[1].content_store 	decision_yes[1] 	0
scalar abilene_cost_network.node[1].content_store 	decision_no[1] 	145595
scalar abilene_cost_network.node[1].content_store 	decision_ratio[1] 	0
scalar abilene_cost_network.node[1].content_store 	correction_factor[1] 	0.0027225701061802
scalar abilene_cost_network.node[1].content_store 	xi[1] 	1
scalar abilene_cost_network.node[2].core_layer 	interests[2] 	298838
scalar abilene_cost_network.node[2].core_layer 	data[2] 	279385
scalar abilene_cost_network.node[2].content_store 	p_hit[2] 	0.044703150201782
scalar abilene_cost_network.node[2].content_store 	hits[2] 	13359
scalar abilene_cost_network.node[2].content_store 	misses[2] 	285479
scalar abilene_cost_network.node[2].content_store 	decision_yes[2] 	1537
scalar abilene_cost_network.node[2].content_store 	decision_no[2] 	277848
scalar abilene_cost_network.node[2].content_store 	decision_ratio[2] 	0.0055013690785117
scalar abilene_cost_network.node[2].content_store 	correction_factor[2] 	0.0027225701061802
scalar abilene_cost_network.node[2].content_store 	xi[2] 	1
scalar abilene_cost_network.node[3].core_layer 	interests[3] 	208482
scalar abilene_cost_network.node[3].core_layer 	data[3] 	196297
scalar abilene_cost_network.node[3].content_store 	p_hit[3] 	0.058431902994023
scalar abilene_cost_network.node[3].content_store 	hits[3] 	12182
scalar abilene_cost_network.node[3].content_store 	misses[3] 	196300
scalar abilene_cost_network.node[3].content_store 	decision_yes[3] 	1601
scalar abilene_cost_network.node[3].content_store 	decision_no[3] 	194696
scalar abilene_cost_network.node[3].content_store 	decision_ratio[3] 	0.008156008497328
scalar abilene_cost_network.node[3].content_store 	correction_factor[3] 	0.0027225701061802
scalar abilene_cost_network.node[3].content_store 	xi[3] 	1
scalar abilene_cost_network.node[4].core_layer 	interests[4] 	259423
scalar abilene_cost_network.node[4].core_layer 	repo_load[4] 	87910
scalar abilene_cost_network.node[4].core_layer 	data[4] 	118565
scalar abilene_cost_network.node[4].content_store 	p_hit[4] 	0.19251184359135
scalar abilene_cost_network.node[4].content_store 	hits[4] 	49942
scalar abilene_cost_network.node[4].content_store 	misses[4] 	209481
scalar abilene_cost_network.node[4].content_store 	decision_yes[4] 	2394
scalar abilene_cost_network.node[4].content_store 	decision_no[4] 	204081
scalar abilene_cost_network.node[4].content_store 	decision_ratio[4] 	0.011594624046495
scalar abilene_cost_network.node[4].content_store 	correction_factor[4] 	0.0027225701061802
scalar abilene_cost_network.node[4].content_store 	xi[4] 	1
scalar abilene_cost_network.node[5].core_layer 	interests[5] 	43875
scalar abilene_cost_network.node[5].core_layer 	data[5] 	37270
scalar abilene_cost_network.node[5].content_store 	p_hit[5] 	0.15054131054131
scalar abilene_cost_network.node[5].content_store 	hits[5] 	6605
scalar abilene_cost_network.node[5].content_store 	misses[5] 	37270
scalar abilene_cost_network.node[5].content_store 	decision_yes[5] 	71
scalar abilene_cost_network.node[5].content_store 	decision_no[5] 	37199
scalar abilene_cost_network.node[5].content_store 	decision_ratio[5] 	0.0019050174403005
scalar abilene_cost_network.node[5].content_store 	correction_factor[5] 	0.0027225701061802
scalar abilene_cost_network.node[5].content_store 	xi[5] 	1
scalar abilene_cost_network.node[6].core_layer 	interests[6] 	105429
scalar abilene_cost_network.node[6].core_layer 	repo_load[6] 	80202
scalar abilene_cost_network.node[6].core_layer 	data[6] 	0
scalar abilene_cost_network.node[6].content_store 	p_hit[6] 	0.23927951512392
scalar abilene_cost_network.node[6].content_store 	hits[6] 	25227
scalar abilene_cost_network.node[6].content_store 	misses[6] 	80202
scalar abilene_cost_network.node[6].content_store 	decision_yes[6] 	229
scalar abilene_cost_network.node[6].content_store 	decision_no[6] 	79973
scalar abilene_cost_network.node[6].content_store 	decision_ratio[6] 	0.0028552903917608
scalar abilene_cost_network.node[6].content_store 	correction_factor[6] 	0.0027225701061802
scalar abilene_cost_network.node[6].content_store 	xi[6] 	1
scalar abilene_cost_network.node[7].core_layer 	interests[7] 	86593
scalar abilene_cost_network.node[7].core_layer 	data[7] 	68159
scalar abilene_cost_network.node[7].content_store 	p_hit[7] 	0.21277701430832
scalar abilene_cost_network.node[7].content_store 	hits[7] 	18425
scalar abilene_cost_network.node[7].content_store 	misses[7] 	68168
scalar abilene_cost_network.node[7].content_store 	decision_yes[7] 	152
scalar abilene_cost_network.node[7].content_store 	decision_no[7] 	68007
scalar abilene_cost_network.node[7].content_store 	decision_ratio[7] 	0.0022300796666618
scalar abilene_cost_network.node[7].content_store 	correction_factor[7] 	0.0027225701061802
scalar abilene_cost_network.node[7].content_store 	xi[7] 	1
scalar abilene_cost_network.node[8].core_layer 	interests[8] 	179378
scalar abilene_cost_network.node[8].core_layer 	data[8] 	163925
scalar abilene_cost_network.node[8].content_store 	p_hit[8] 	0.07179810233139
scalar abilene_cost_network.node[8].content_store 	hits[8] 	12879
scalar abilene_cost_network.node[8].content_store 	misses[8] 	166499
scalar abilene_cost_network.node[8].content_store 	decision_yes[8] 	816
scalar abilene_cost_network.node[8].content_store 	decision_no[8] 	163109
scalar abilene_cost_network.node[8].content_store 	decision_ratio[8] 	0.0049778862284581
scalar abilene_cost_network.node[8].content_store 	correction_factor[8] 	0.0027225701061802
scalar abilene_cost_network.node[8].content_store 	xi[8] 	1
scalar abilene_cost_network.node[9].core_layer 	interests[9] 	74672
scalar abilene_cost_network.node[9].core_layer 	data[9] 	74672
scalar abilene_cost_network.node[9].content_store 	p_hit[9] 	0
scalar abilene_cost_network.node[9].content_store 	hits[9] 	0
scalar abilene_cost_network.node[9].content_store 	misses[9] 	74672
scalar abilene_cost_network.node[9].content_store 	decision_yes[9] 	0
scalar abilene_cost_network.node[9].content_store 	decision_no[9] 	74672
scalar abilene_cost_network.node[9].content_store 	decision_ratio[9] 	0
scalar abilene_cost_network.node[9].content_store 	correction_factor[9] 	0.0027225701061802
scalar abilene_cost_network.node[9].content_store 	xi[9] 	1
scalar abilene_cost_network.node[10].core_layer 	interests[10] 	220268
scalar abilene_cost_network.node[10].core_layer 	repo_load[10] 	220268
scalar abilene_cost_network.node[10].core_layer 	data[10] 	0
scalar abilene_cost_network.node[10].content_store 	p_hit[10] 	0
scalar abilene_cost_network.node[10].content_store 	hits[10] 	0
scalar abilene_cost_network.node[10].content_store 	misses[10] 	220268
scalar abilene_cost_network.node[10].content_store 	decision_yes[10] 	0
scalar abilene_cost_network.node[10].content_store 	decision_no[10] 	220268
scalar abilene_cost_network.node[10].content_store 	decision_ratio[10] 	0
scalar abilene_cost_network.node[10].content_store 	correction_factor[10] 	0.0027225701061802
scalar abilene_cost_network.node[10].content_store 	xi[10] 	1
scalar abilene_cost_network.client[2] 	hdistance[2] 	2.7901679064343
scalar abilene_cost_network.client[2] 	downloads[2] 	176646
scalar abilene_cost_network.client[2] 	avg_time[2] 	0.01186571765
scalar abilene_cost_network.client[2] 	interests_sent[2] 	179116
scalar abilene_cost_network.client[4] 	hdistance[4] 	2.9054526162512
scalar abilene_cost_network.client[4] 	downloads[4] 	177181
scalar abilene_cost_network.client[4] 	avg_time[4] 	0.011802032262
scalar abilene_cost_network.client[4] 	interests_sent[4] 	180187
scalar abilene_cost_network.client[8] 	hdistance[8] 	2.6885647383543
scalar abilene_cost_network.client[8] 	downloads[8] 	176804
scalar abilene_cost_network.client[8] 	avg_time[8] 	0.013784483238
scalar abilene_cost_network.client[8] 	interests_sent[8] 	179378
