version 2
run General-0-20140904-15:42:23-28249
attr D costprobprodcorr0.01
attr F spr
attr R lru
attr a 1
attr configname General
attr csize 1e3
attr ctlg 1e5
attr datetime 20140904-15:42:23
attr experiment General
attr inifile omnetpp.ini
attr iterationvars "$net=abilene_cost, $rep=20, $priceratiovalue=10, $weights=0.333_0.333_0.334, $lambda=100, $a=1, $ctlg=1e5, $F=spr, $ttl=10, $D=costprobprodcorr0.01, $xi=1, $R=lru, $csize=1e3, $pricebits=0, $window=60, $variance=0.05, $mytime=1800"
attr iterationvars2 "$net=abilene_cost, $rep=20, $priceratiovalue=10, $weights=0.333_0.333_0.334, $lambda=100, $a=1, $ctlg=1e5, $F=spr, $ttl=10, $D=costprobprodcorr0.01, $xi=1, $R=lru, $csize=1e3, $pricebits=0, $window=60, $variance=0.05, $mytime=1800, $repetition=0"
attr lambda 100
attr measurement "$net=abilene_cost, $rep=20, $priceratiovalue=10, $weights=0.333_0.333_0.334, $lambda=100, $a=1, $ctlg=1e5, $F=spr, $ttl=10, $D=costprobprodcorr0.01, $xi=1, $R=lru, $csize=1e3, $pricebits=0, $window=60, $variance=0.05, $mytime=1800"
attr mytime 1800
attr net abilene_cost
attr network networks.${net=abilene_cost}_network
attr pricebits 0
attr priceratiovalue 10
attr processid 28249
attr rep 20
attr repetition 0
attr replication #0
attr resultdir results
attr runnumber 0
attr seedset 20
attr ttl 10
attr variance 0.05
attr weights 0.333_0.333_0.334
attr window 60
attr xi 1

scalar . 	a 	1
scalar . 	csize 	1e3
scalar . 	ctlg 	1e5
scalar . 	lambda 	100
scalar . 	mytime 	1800
scalar . 	pricebits 	0
scalar . 	priceratiovalue 	10
scalar . 	rep 	20
scalar . 	ttl 	10
scalar . 	variance 	0.05
scalar . 	window 	60
scalar . 	xi 	1
scalar abilene_cost_network.content_distribution 	repo-0 	3
scalar abilene_cost_network.content_distribution 	repo-1 	2
scalar abilene_cost_network.content_distribution 	repo-2 	0
scalar abilene_cost_network.content_distribution 	client-0 	10
scalar abilene_cost_network.content_distribution 	client-1 	1
scalar abilene_cost_network.content_distribution 	client-2 	7
scalar abilene_cost_network.content_distribution 	repo-0_card 	33322
scalar abilene_cost_network.content_distribution 	repo-0_price 	1
scalar abilene_cost_network.content_distribution 	repo-1_card 	33295
scalar abilene_cost_network.content_distribution 	repo-1_price 	0
scalar abilene_cost_network.content_distribution 	repo-2_card 	33383
scalar abilene_cost_network.content_distribution 	repo-2_price 	10
scalar abilene_cost_network.statistics 	repo_popularity[0] 	0.35214481683808
scalar abilene_cost_network.statistics 	repo_popularity[1] 	0.2979978729425
scalar abilene_cost_network.statistics 	repo_popularity[2] 	0.34985731021944
scalar abilene_cost_network.statistics 	stabilization_time 	36060
scalar abilene_cost_network.statistics 	p_hit 	0.13847397943985
scalar abilene_cost_network.statistics 	interests 	129394.18181818
scalar abilene_cost_network.statistics 	data 	80192.636363636
scalar abilene_cost_network.statistics 	hdistance 	2.2782505648722
scalar abilene_cost_network.statistics 	avg_time 	0.010755661232
scalar abilene_cost_network.statistics 	downloads 	536164
scalar abilene_cost_network.statistics 	total_cost 	958001
scalar abilene_cost_network.statistics 	total_replicas 	100000
scalar abilene_cost_network.statistics 	inner_hit 	0.37058996874091
scalar abilene_cost_network.statistics 	interests_sent 	541207
scalar abilene_cost_network.node[0].core_layer 	interests[0] 	132160
scalar abilene_cost_network.node[0].core_layer 	repo_load[0] 	86825
scalar abilene_cost_network.node[0].core_layer 	data[0] 	0
scalar abilene_cost_network.node[0].core_layer 	repo_int[0] 	337467
scalar abilene_cost_network.node[0].content_store 	p_hit[0] 	0.34303117433414
scalar abilene_cost_network.node[0].content_store 	hits[0] 	45335
scalar abilene_cost_network.node[0].content_store 	misses[0] 	86825
scalar abilene_cost_network.node[0].content_store 	decision_yes[0] 	2339
scalar abilene_cost_network.node[0].content_store 	decision_no[0] 	84486
scalar abilene_cost_network.node[0].content_store 	decision_ratio[0] 	0.026939245608984
scalar abilene_cost_network.node[0].content_store 	correction_factor[0] 	0.0027225701061802
scalar abilene_cost_network.node[0].content_store 	xi[0] 	1
scalar abilene_cost_network.node[1].core_layer 	interests[1] 	348628
scalar abilene_cost_network.node[1].core_layer 	data[1] 	305187
scalar abilene_cost_network.node[1].content_store 	p_hit[1] 	0.11746618171805
scalar abilene_cost_network.node[1].content_store 	hits[1] 	40952
scalar abilene_cost_network.node[1].content_store 	misses[1] 	307676
scalar abilene_cost_network.node[1].content_store 	decision_yes[1] 	1812
scalar abilene_cost_network.node[1].content_store 	decision_no[1] 	303375
scalar abilene_cost_network.node[1].content_store 	decision_ratio[1] 	0.0059373433337593
scalar abilene_cost_network.node[1].content_store 	correction_factor[1] 	0.0027225701061802
scalar abilene_cost_network.node[1].content_store 	xi[1] 	1
scalar abilene_cost_network.node[2].core_layer 	interests[2] 	334259
scalar abilene_cost_network.node[2].core_layer 	repo_load[2] 	160891
scalar abilene_cost_network.node[2].core_layer 	data[2] 	132895
scalar abilene_cost_network.node[2].content_store 	p_hit[2] 	0.12107676981024
scalar abilene_cost_network.node[2].content_store 	hits[2] 	40471
scalar abilene_cost_network.node[2].content_store 	misses[2] 	293788
scalar abilene_cost_network.node[2].content_store 	decision_yes[2] 	926
scalar abilene_cost_network.node[2].content_store 	decision_no[2] 	292860
scalar abilene_cost_network.node[2].content_store 	decision_ratio[2] 	0.0031519541434922
scalar abilene_cost_network.node[2].content_store 	correction_factor[2] 	0.0027225701061802
scalar abilene_cost_network.node[2].content_store 	xi[2] 	1
scalar abilene_cost_network.node[3].core_layer 	interests[3] 	246954
scalar abilene_cost_network.node[3].core_layer 	repo_load[3] 	89751
scalar abilene_cost_network.node[3].core_layer 	data[3] 	111716
scalar abilene_cost_network.node[3].content_store 	p_hit[3] 	0.18418409906298
scalar abilene_cost_network.node[3].content_store 	hits[3] 	45485
scalar abilene_cost_network.node[3].content_store 	misses[3] 	201469
scalar abilene_cost_network.node[3].content_store 	decision_yes[3] 	1014
scalar abilene_cost_network.node[3].content_store 	decision_no[3] 	200453
scalar abilene_cost_network.node[3].content_store 	decision_ratio[3] 	0.0050330823410286
scalar abilene_cost_network.node[3].content_store 	correction_factor[3] 	0.0027225701061802
scalar abilene_cost_network.node[3].content_store 	xi[3] 	1
scalar abilene_cost_network.node[4].core_layer 	interests[4] 	0
scalar abilene_cost_network.node[4].core_layer 	data[4] 	0
scalar abilene_cost_network.node[4].content_store 	p_hit[4] 	-nan
scalar abilene_cost_network.node[4].content_store 	hits[4] 	0
scalar abilene_cost_network.node[4].content_store 	misses[4] 	0
scalar abilene_cost_network.node[4].content_store 	decision_yes[4] 	0
scalar abilene_cost_network.node[4].content_store 	decision_no[4] 	0
scalar abilene_cost_network.node[4].content_store 	decision_ratio[4] 	0
scalar abilene_cost_network.node[4].content_store 	correction_factor[4] 	0.0027225701061802
scalar abilene_cost_network.node[4].content_store 	xi[4] 	1
scalar abilene_cost_network.node[5].core_layer 	interests[5] 	0
scalar abilene_cost_network.node[5].core_layer 	data[5] 	0
scalar abilene_cost_network.node[5].content_store 	p_hit[5] 	-nan
scalar abilene_cost_network.node[5].content_store 	hits[5] 	0
scalar abilene_cost_network.node[5].content_store 	misses[5] 	0
scalar abilene_cost_network.node[5].content_store 	decision_yes[5] 	0
scalar abilene_cost_network.node[5].content_store 	decision_no[5] 	0
scalar abilene_cost_network.node[5].content_store 	decision_ratio[5] 	0
scalar abilene_cost_network.node[5].content_store 	correction_factor[5] 	0.0027225701061802
scalar abilene_cost_network.node[5].content_store 	xi[5] 	1
scalar abilene_cost_network.node[6].core_layer 	interests[6] 	0
scalar abilene_cost_network.node[6].core_layer 	data[6] 	0
scalar abilene_cost_network.node[6].content_store 	p_hit[6] 	-nan
scalar abilene_cost_network.node[6].content_store 	hits[6] 	0
scalar abilene_cost_network.node[6].content_store 	misses[6] 	0
scalar abilene_cost_network.node[6].content_store 	decision_yes[6] 	0
scalar abilene_cost_network.node[6].content_store 	decision_no[6] 	0
scalar abilene_cost_network.node[6].content_store 	decision_ratio[6] 	0
scalar abilene_cost_network.node[6].content_store 	correction_factor[6] 	0.0027225701061802
scalar abilene_cost_network.node[6].content_store 	xi[6] 	1
scalar abilene_cost_network.node[7].core_layer 	interests[7] 	180693
scalar abilene_cost_network.node[7].core_layer 	data[7] 	168326
scalar abilene_cost_network.node[7].content_store 	p_hit[7] 	0.059310543297195
scalar abilene_cost_network.node[7].content_store 	hits[7] 	10717
scalar abilene_cost_network.node[7].content_store 	misses[7] 	169976
scalar abilene_cost_network.node[7].content_store 	decision_yes[7] 	858
scalar abilene_cost_network.node[7].content_store 	decision_no[7] 	167468
scalar abilene_cost_network.node[7].content_store 	decision_ratio[7] 	0.0050972517614629
scalar abilene_cost_network.node[7].content_store 	correction_factor[7] 	0.0027225701061802
scalar abilene_cost_network.node[7].content_store 	xi[7] 	1
scalar abilene_cost_network.node[8].core_layer 	interests[8] 	0
scalar abilene_cost_network.node[8].core_layer 	data[8] 	0
scalar abilene_cost_network.node[8].content_store 	p_hit[8] 	-nan
scalar abilene_cost_network.node[8].content_store 	hits[8] 	0
scalar abilene_cost_network.node[8].content_store 	misses[8] 	0
scalar abilene_cost_network.node[8].content_store 	decision_yes[8] 	0
scalar abilene_cost_network.node[8].content_store 	decision_no[8] 	0
scalar abilene_cost_network.node[8].content_store 	decision_ratio[8] 	0
scalar abilene_cost_network.node[8].content_store 	correction_factor[8] 	0.0027225701061802
scalar abilene_cost_network.node[8].content_store 	xi[8] 	1
scalar abilene_cost_network.node[9].core_layer 	interests[9] 	0
scalar abilene_cost_network.node[9].core_layer 	data[9] 	0
scalar abilene_cost_network.node[9].content_store 	p_hit[9] 	-nan
scalar abilene_cost_network.node[9].content_store 	hits[9] 	0
scalar abilene_cost_network.node[9].content_store 	misses[9] 	0
scalar abilene_cost_network.node[9].content_store 	decision_yes[9] 	0
scalar abilene_cost_network.node[9].content_store 	decision_no[9] 	0
scalar abilene_cost_network.node[9].content_store 	decision_ratio[9] 	0
scalar abilene_cost_network.node[9].content_store 	correction_factor[9] 	0.0027225701061802
scalar abilene_cost_network.node[9].content_store 	xi[9] 	1
scalar abilene_cost_network.node[10].core_layer 	interests[10] 	180642
scalar abilene_cost_network.node[10].core_layer 	data[10] 	163995
scalar abilene_cost_network.node[10].content_store 	p_hit[10] 	0.07824869078066
scalar abilene_cost_network.node[10].content_store 	hits[10] 	14135
scalar abilene_cost_network.node[10].content_store 	misses[10] 	166507
scalar abilene_cost_network.node[10].content_store 	decision_yes[10] 	848
scalar abilene_cost_network.node[10].content_store 	decision_no[10] 	163147
scalar abilene_cost_network.node[10].content_store 	decision_ratio[10] 	0.0051708893563828
scalar abilene_cost_network.node[10].content_store 	correction_factor[10] 	0.0027225701061802
scalar abilene_cost_network.node[10].content_store 	xi[10] 	1
scalar abilene_cost_network.client[1] 	hdistance[1] 	1.7303551575219
scalar abilene_cost_network.client[1] 	downloads[1] 	178991
scalar abilene_cost_network.client[1] 	avg_time[1] 	0.007504548846
scalar abilene_cost_network.client[1] 	interests_sent[1] 	179872
scalar abilene_cost_network.client[7] 	hdistance[7] 	2.709578146032
scalar abilene_cost_network.client[7] 	downloads[7] 	179043
scalar abilene_cost_network.client[7] 	avg_time[7] 	0.01149649257
scalar abilene_cost_network.client[7] 	interests_sent[7] 	180693
scalar abilene_cost_network.client[10] 	hdistance[10] 	2.3948183910627
scalar abilene_cost_network.client[10] 	downloads[10] 	178130
scalar abilene_cost_network.client[10] 	avg_time[10] 	0.013265942282
scalar abilene_cost_network.client[10] 	interests_sent[10] 	180642
