version 2
run General-12-20140904-11:24:09-24411
attr D costprobprodcorr0.01
attr F spr
attr R lru
attr a 1
attr configname General
attr csize 1e3
attr ctlg 1e5
attr datetime 20140904-11:24:09
attr experiment General
attr inifile omnetpp.ini
attr iterationvars "$net=abilene_cost, $rep=4, $priceratiovalue=10, $weights=0.333_0.333_0.334, $lambda=100, $a=1, $ctlg=1e5, $F=spr, $ttl=10, $D=costprobprodcorr0.01, $xi=1, $R=lru, $csize=1e3, $pricebits=0, $window=60, $variance=0.05, $mytime=1800"
attr iterationvars2 "$net=abilene_cost, $rep=4, $priceratiovalue=10, $weights=0.333_0.333_0.334, $lambda=100, $a=1, $ctlg=1e5, $F=spr, $ttl=10, $D=costprobprodcorr0.01, $xi=1, $R=lru, $csize=1e3, $pricebits=0, $window=60, $variance=0.05, $mytime=1800, $repetition=0"
attr lambda 100
attr measurement "$net=abilene_cost, $rep=4, $priceratiovalue=10, $weights=0.333_0.333_0.334, $lambda=100, $a=1, $ctlg=1e5, $F=spr, $ttl=10, $D=costprobprodcorr0.01, $xi=1, $R=lru, $csize=1e3, $pricebits=0, $window=60, $variance=0.05, $mytime=1800"
attr mytime 1800
attr net abilene_cost
attr network networks.${net=abilene_cost}_network
attr pricebits 0
attr priceratiovalue 10
attr processid 24411
attr rep 4
attr repetition 0
attr replication #0
attr resultdir results
attr runnumber 12
attr seedset 4
attr ttl 10
attr variance 0.05
attr weights 0.333_0.333_0.334
attr window 60
attr xi 1

scalar . 	a 	1
scalar . 	csize 	1e3
scalar . 	ctlg 	1e5
scalar . 	lambda 	100
scalar . 	mytime 	1800
scalar . 	pricebits 	0
scalar . 	priceratiovalue 	10
scalar . 	rep 	4
scalar . 	ttl 	10
scalar . 	variance 	0.05
scalar . 	window 	60
scalar . 	xi 	1
scalar abilene_cost_network.content_distribution 	repo-0 	2
scalar abilene_cost_network.content_distribution 	repo-1 	0
scalar abilene_cost_network.content_distribution 	repo-2 	10
scalar abilene_cost_network.content_distribution 	client-0 	6
scalar abilene_cost_network.content_distribution 	client-1 	2
scalar abilene_cost_network.content_distribution 	client-2 	4
scalar abilene_cost_network.content_distribution 	repo-0_card 	33274
scalar abilene_cost_network.content_distribution 	repo-0_price 	0
scalar abilene_cost_network.content_distribution 	repo-1_card 	33153
scalar abilene_cost_network.content_distribution 	repo-1_price 	1
scalar abilene_cost_network.content_distribution 	repo-2_card 	33573
scalar abilene_cost_network.content_distribution 	repo-2_price 	10
scalar abilene_cost_network.statistics 	repo_popularity[0] 	0.33945880017902
scalar abilene_cost_network.statistics 	repo_popularity[1] 	0.30988277584688
scalar abilene_cost_network.statistics 	repo_popularity[2] 	0.35065842397411
scalar abilene_cost_network.statistics 	stabilization_time 	36060
scalar abilene_cost_network.statistics 	p_hit 	0.10027702659206
scalar abilene_cost_network.statistics 	interests 	168050.81818182
scalar abilene_cost_network.statistics 	data 	118959.54545455
scalar abilene_cost_network.statistics 	hdistance 	3.1184772967414
scalar abilene_cost_network.statistics 	avg_time 	0.014906185862
scalar abilene_cost_network.statistics 	downloads 	533424
scalar abilene_cost_network.statistics 	total_cost 	906235
scalar abilene_cost_network.statistics 	total_replicas 	100000
scalar abilene_cost_network.statistics 	inner_hit 	0.3543616335223
scalar abilene_cost_network.statistics 	interests_sent 	540009
scalar abilene_cost_network.node[0].core_layer 	interests[0] 	124915
scalar abilene_cost_network.node[0].core_layer 	repo_load[0] 	81915
scalar abilene_cost_network.node[0].core_layer 	data[0] 	0
scalar abilene_cost_network.node[0].core_layer 	repo_int[0] 	344399
scalar abilene_cost_network.node[0].content_store 	p_hit[0] 	0.34423407917384
scalar abilene_cost_network.node[0].content_store 	hits[0] 	43000
scalar abilene_cost_network.node[0].content_store 	misses[0] 	81915
scalar abilene_cost_network.node[0].content_store 	decision_yes[0] 	243
scalar abilene_cost_network.node[0].content_store 	decision_no[0] 	81672
scalar abilene_cost_network.node[0].content_store 	decision_ratio[0] 	0.0029664896539095
scalar abilene_cost_network.node[0].content_store 	correction_factor[0] 	0.0027225701061802
scalar abilene_cost_network.node[0].content_store 	xi[0] 	1
scalar abilene_cost_network.node[1].core_layer 	interests[1] 	239831
scalar abilene_cost_network.node[1].core_layer 	data[1] 	214225
scalar abilene_cost_network.node[1].content_store 	p_hit[1] 	0.10677101792512
scalar abilene_cost_network.node[1].content_store 	hits[1] 	25607
scalar abilene_cost_network.node[1].content_store 	misses[1] 	214224
scalar abilene_cost_network.node[1].content_store 	decision_yes[1] 	1753
scalar abilene_cost_network.node[1].content_store 	decision_no[1] 	212472
scalar abilene_cost_network.node[1].content_store 	decision_ratio[1] 	0.0081829851791341
scalar abilene_cost_network.node[1].content_store 	correction_factor[1] 	0.0027225701061802
scalar abilene_cost_network.node[1].content_store 	xi[1] 	1
scalar abilene_cost_network.node[2].core_layer 	interests[2] 	449408
scalar abilene_cost_network.node[2].core_layer 	repo_load[2] 	180052
scalar abilene_cost_network.node[2].core_layer 	data[2] 	239832
scalar abilene_cost_network.node[2].content_store 	p_hit[2] 	0.058975363144403
scalar abilene_cost_network.node[2].content_store 	hits[2] 	26504
scalar abilene_cost_network.node[2].content_store 	misses[2] 	422904
scalar abilene_cost_network.node[2].content_store 	decision_yes[2] 	1731
scalar abilene_cost_network.node[2].content_store 	decision_no[2] 	418153
scalar abilene_cost_network.node[2].content_store 	decision_ratio[2] 	0.0041225671852226
scalar abilene_cost_network.node[2].content_store 	correction_factor[2] 	0.0027225701061802
scalar abilene_cost_network.node[2].content_store 	xi[2] 	1
scalar abilene_cost_network.node[3].core_layer 	interests[3] 	281025
scalar abilene_cost_network.node[3].core_layer 	data[3] 	269505
scalar abilene_cost_network.node[3].content_store 	p_hit[3] 	0.035534205141891
scalar abilene_cost_network.node[3].content_store 	hits[3] 	9986
scalar abilene_cost_network.node[3].content_store 	misses[3] 	271039
scalar abilene_cost_network.node[3].content_store 	decision_yes[3] 	820
scalar abilene_cost_network.node[3].content_store 	decision_no[3] 	268685
scalar abilene_cost_network.node[3].content_store 	decision_ratio[3] 	0.0030426151648392
scalar abilene_cost_network.node[3].content_store 	correction_factor[3] 	0.0027225701061802
scalar abilene_cost_network.node[3].content_store 	xi[3] 	1
scalar abilene_cost_network.node[4].core_layer 	interests[4] 	180072
scalar abilene_cost_network.node[4].core_layer 	data[4] 	173303
scalar abilene_cost_network.node[4].content_store 	p_hit[4] 	0.025589764094362
scalar abilene_cost_network.node[4].content_store 	hits[4] 	4608
scalar abilene_cost_network.node[4].content_store 	misses[4] 	175464
scalar abilene_cost_network.node[4].content_store 	decision_yes[4] 	804
scalar abilene_cost_network.node[4].content_store 	decision_no[4] 	172499
scalar abilene_cost_network.node[4].content_store 	decision_ratio[4] 	0.0046392734113085
scalar abilene_cost_network.node[4].content_store 	correction_factor[4] 	0.0027225701061802
scalar abilene_cost_network.node[4].content_store 	xi[4] 	1
scalar abilene_cost_network.node[5].core_layer 	interests[5] 	0
scalar abilene_cost_network.node[5].core_layer 	data[5] 	0
scalar abilene_cost_network.node[5].content_store 	p_hit[5] 	-nan
scalar abilene_cost_network.node[5].content_store 	hits[5] 	0
scalar abilene_cost_network.node[5].content_store 	misses[5] 	0
scalar abilene_cost_network.node[5].content_store 	decision_yes[5] 	0
scalar abilene_cost_network.node[5].content_store 	decision_no[5] 	0
scalar abilene_cost_network.node[5].content_store 	decision_ratio[5] 	0
scalar abilene_cost_network.node[5].content_store 	correction_factor[5] 	0.0027225701061802
scalar abilene_cost_network.node[5].content_store 	xi[5] 	1
scalar abilene_cost_network.node[6].core_layer 	interests[6] 	180033
scalar abilene_cost_network.node[6].core_layer 	data[6] 	166529
scalar abilene_cost_network.node[6].content_store 	p_hit[6] 	0.055439836030061
scalar abilene_cost_network.node[6].content_store 	hits[6] 	9981
scalar abilene_cost_network.node[6].content_store 	misses[6] 	170052
scalar abilene_cost_network.node[6].content_store 	decision_yes[6] 	788
scalar abilene_cost_network.node[6].content_store 	decision_no[6] 	165741
scalar abilene_cost_network.node[6].content_store 	decision_ratio[6] 	0.0047319085564676
scalar abilene_cost_network.node[6].content_store 	correction_factor[6] 	0.0027225701061802
scalar abilene_cost_network.node[6].content_store 	xi[6] 	1
scalar abilene_cost_network.node[7].core_layer 	interests[7] 	166527
scalar abilene_cost_network.node[7].core_layer 	data[7] 	159320
scalar abilene_cost_network.node[7].content_store 	p_hit[7] 	0.04328427222012
scalar abilene_cost_network.node[7].content_store 	hits[7] 	7208
scalar abilene_cost_network.node[7].content_store 	misses[7] 	159319
scalar abilene_cost_network.node[7].content_store 	decision_yes[7] 	821
scalar abilene_cost_network.node[7].content_store 	decision_no[7] 	158499
scalar abilene_cost_network.node[7].content_store 	decision_ratio[7] 	0.005153150891288
scalar abilene_cost_network.node[7].content_store 	correction_factor[7] 	0.0027225701061802
scalar abilene_cost_network.node[7].content_store 	xi[7] 	1
scalar abilene_cost_network.node[8].core_layer 	interests[8] 	51597
scalar abilene_cost_network.node[8].core_layer 	data[8] 	44328
scalar abilene_cost_network.node[8].content_store 	p_hit[8] 	0.14086090276566
scalar abilene_cost_network.node[8].content_store 	hits[8] 	7268
scalar abilene_cost_network.node[8].content_store 	misses[8] 	44329
scalar abilene_cost_network.node[8].content_store 	decision_yes[8] 	706
scalar abilene_cost_network.node[8].content_store 	decision_no[8] 	43622
scalar abilene_cost_network.node[8].content_store 	decision_ratio[8] 	0.015926728027432
scalar abilene_cost_network.node[8].content_store 	correction_factor[8] 	0.0027225701061802
scalar abilene_cost_network.node[8].content_store 	xi[8] 	1
scalar abilene_cost_network.node[9].core_layer 	interests[9] 	44328
scalar abilene_cost_network.node[9].core_layer 	data[9] 	41513
scalar abilene_cost_network.node[9].content_store 	p_hit[9] 	0.063503880166035
scalar abilene_cost_network.node[9].content_store 	hits[9] 	2815
scalar abilene_cost_network.node[9].content_store 	misses[9] 	41513
scalar abilene_cost_network.node[9].content_store 	decision_yes[9] 	750
scalar abilene_cost_network.node[9].content_store 	decision_no[9] 	40763
scalar abilene_cost_network.node[9].content_store 	decision_ratio[9] 	0.018066629730446
scalar abilene_cost_network.node[9].content_store 	correction_factor[9] 	0.0027225701061802
scalar abilene_cost_network.node[9].content_store 	xi[9] 	1
scalar abilene_cost_network.node[10].core_layer 	interests[10] 	130823
scalar abilene_cost_network.node[10].core_layer 	repo_load[10] 	82432
scalar abilene_cost_network.node[10].core_layer 	data[10] 	0
scalar abilene_cost_network.node[10].content_store 	p_hit[10] 	0.3698967306972
scalar abilene_cost_network.node[10].content_store 	hits[10] 	48391
scalar abilene_cost_network.node[10].content_store 	misses[10] 	82432
scalar abilene_cost_network.node[10].content_store 	decision_yes[10] 	2289
scalar abilene_cost_network.node[10].content_store 	decision_no[10] 	80143
scalar abilene_cost_network.node[10].content_store 	decision_ratio[10] 	0.027768342391304
scalar abilene_cost_network.node[10].content_store 	correction_factor[10] 	0.0027225701061802
scalar abilene_cost_network.node[10].content_store 	xi[10] 	1
scalar abilene_cost_network.client[2] 	hdistance[2] 	1.7527471606621
scalar abilene_cost_network.client[2] 	downloads[2] 	179003
scalar abilene_cost_network.client[2] 	avg_time[2] 	0.008759834569
scalar abilene_cost_network.client[2] 	interests_sent[2] 	179904
scalar abilene_cost_network.client[4] 	hdistance[4] 	3.564681217013
scalar abilene_cost_network.client[4] 	downloads[4] 	177911
scalar abilene_cost_network.client[4] 	avg_time[4] 	0.014362529822
scalar abilene_cost_network.client[4] 	interests_sent[4] 	180072
scalar abilene_cost_network.client[6] 	hdistance[6] 	4.038003512549
scalar abilene_cost_network.client[6] 	downloads[6] 	176510
scalar abilene_cost_network.client[6] 	avg_time[6] 	0.021596193195
scalar abilene_cost_network.client[6] 	interests_sent[6] 	180033
