version 2
run General-0-20140904-16:05:27-25322
attr D costprobprodcorr0.01
attr F spr
attr R lru
attr a 1
attr configname General
attr csize 1e3
attr ctlg 1e5
attr datetime 20140904-16:05:27
attr experiment General
attr inifile omnetpp.ini
attr iterationvars "$net=abilene_cost, $rep=17, $priceratiovalue=10, $weights=0.333_0.333_0.334, $lambda=100, $a=1, $ctlg=1e5, $F=spr, $ttl=10, $D=costprobprodcorr0.01, $xi=1, $R=lru, $csize=1e3, $pricebits=0, $window=60, $variance=0.05, $mytime=1800"
attr iterationvars2 "$net=abilene_cost, $rep=17, $priceratiovalue=10, $weights=0.333_0.333_0.334, $lambda=100, $a=1, $ctlg=1e5, $F=spr, $ttl=10, $D=costprobprodcorr0.01, $xi=1, $R=lru, $csize=1e3, $pricebits=0, $window=60, $variance=0.05, $mytime=1800, $repetition=0"
attr lambda 100
attr measurement "$net=abilene_cost, $rep=17, $priceratiovalue=10, $weights=0.333_0.333_0.334, $lambda=100, $a=1, $ctlg=1e5, $F=spr, $ttl=10, $D=costprobprodcorr0.01, $xi=1, $R=lru, $csize=1e3, $pricebits=0, $window=60, $variance=0.05, $mytime=1800"
attr mytime 1800
attr net abilene_cost
attr network networks.${net=abilene_cost}_network
attr pricebits 0
attr priceratiovalue 10
attr processid 25322
attr rep 17
attr repetition 0
attr replication #0
attr resultdir results
attr runnumber 0
attr seedset 17
attr ttl 10
attr variance 0.05
attr weights 0.333_0.333_0.334
attr window 60
attr xi 1

scalar . 	a 	1
scalar . 	csize 	1e3
scalar . 	ctlg 	1e5
scalar . 	lambda 	100
scalar . 	mytime 	1800
scalar . 	pricebits 	0
scalar . 	priceratiovalue 	10
scalar . 	rep 	17
scalar . 	ttl 	10
scalar . 	variance 	0.05
scalar . 	window 	60
scalar . 	xi 	1
scalar abilene_cost_network.content_distribution 	repo-0 	5
scalar abilene_cost_network.content_distribution 	repo-1 	7
scalar abilene_cost_network.content_distribution 	repo-2 	6
scalar abilene_cost_network.content_distribution 	client-0 	7
scalar abilene_cost_network.content_distribution 	client-1 	0
scalar abilene_cost_network.content_distribution 	client-2 	5
scalar abilene_cost_network.content_distribution 	repo-0_card 	33433
scalar abilene_cost_network.content_distribution 	repo-0_price 	10
scalar abilene_cost_network.content_distribution 	repo-1_card 	33237
scalar abilene_cost_network.content_distribution 	repo-1_price 	0
scalar abilene_cost_network.content_distribution 	repo-2_card 	33330
scalar abilene_cost_network.content_distribution 	repo-2_price 	1
scalar abilene_cost_network.statistics 	repo_popularity[0] 	0.26765239259926
scalar abilene_cost_network.statistics 	repo_popularity[1] 	0.4212005119898
scalar abilene_cost_network.statistics 	repo_popularity[2] 	0.31114709541094
scalar abilene_cost_network.statistics 	stabilization_time 	36060
scalar abilene_cost_network.statistics 	p_hit 	0.08501460601692
scalar abilene_cost_network.statistics 	interests 	143776.36363636
scalar abilene_cost_network.statistics 	data 	94638.181818182
scalar abilene_cost_network.statistics 	hdistance 	2.7094317730552
scalar abilene_cost_network.statistics 	avg_time 	0.011175951727
scalar abilene_cost_network.statistics 	downloads 	534666
scalar abilene_cost_network.statistics 	total_cost 	937664
scalar abilene_cost_network.statistics 	total_replicas 	100000
scalar abilene_cost_network.statistics 	inner_hit 	0.25155704682924
scalar abilene_cost_network.statistics 	interests_sent 	540518
scalar abilene_cost_network.node[0].core_layer 	interests[0] 	180246
scalar abilene_cost_network.node[0].core_layer 	data[0] 	168677
scalar abilene_cost_network.node[0].core_layer 	repo_int[0] 	400167
scalar abilene_cost_network.node[0].content_store 	p_hit[0] 	0.039712393062814
scalar abilene_cost_network.node[0].content_store 	hits[0] 	7158
scalar abilene_cost_network.node[0].content_store 	misses[0] 	173088
scalar abilene_cost_network.node[0].content_store 	decision_yes[0] 	769
scalar abilene_cost_network.node[0].content_store 	decision_no[0] 	167908
scalar abilene_cost_network.node[0].content_store 	decision_ratio[0] 	0.0045590092306598
scalar abilene_cost_network.node[0].content_store 	correction_factor[0] 	0.0027225701061802
scalar abilene_cost_network.node[0].content_store 	xi[0] 	1
scalar abilene_cost_network.node[1].core_layer 	interests[1] 	168679
scalar abilene_cost_network.node[1].core_layer 	data[1] 	165748
scalar abilene_cost_network.node[1].content_store 	p_hit[1] 	0.017376199764049
scalar abilene_cost_network.node[1].content_store 	hits[1] 	2931
scalar abilene_cost_network.node[1].content_store 	misses[1] 	165748
scalar abilene_cost_network.node[1].content_store 	decision_yes[1] 	766
scalar abilene_cost_network.node[1].content_store 	decision_no[1] 	164982
scalar abilene_cost_network.node[1].content_store 	decision_ratio[1] 	0.0046214735622753
scalar abilene_cost_network.node[1].content_store 	correction_factor[1] 	0.0027225701061802
scalar abilene_cost_network.node[1].content_store 	xi[1] 	1
scalar abilene_cost_network.node[2].core_layer 	interests[2] 	165748
scalar abilene_cost_network.node[2].core_layer 	data[2] 	153537
scalar abilene_cost_network.node[2].content_store 	p_hit[2] 	0.073666047252456
scalar abilene_cost_network.node[2].content_store 	hits[2] 	12210
scalar abilene_cost_network.node[2].content_store 	misses[2] 	153538
scalar abilene_cost_network.node[2].content_store 	decision_yes[2] 	797
scalar abilene_cost_network.node[2].content_store 	decision_no[2] 	152740
scalar abilene_cost_network.node[2].content_store 	decision_ratio[2] 	0.0051909311761986
scalar abilene_cost_network.node[2].content_store 	correction_factor[2] 	0.0027225701061802
scalar abilene_cost_network.node[2].content_store 	xi[2] 	1
scalar abilene_cost_network.node[3].core_layer 	interests[3] 	153537
scalar abilene_cost_network.node[3].core_layer 	data[3] 	149916
scalar abilene_cost_network.node[3].content_store 	p_hit[3] 	0.023583891830634
scalar abilene_cost_network.node[3].content_store 	hits[3] 	3621
scalar abilene_cost_network.node[3].content_store 	misses[3] 	149916
scalar abilene_cost_network.node[3].content_store 	decision_yes[3] 	757
scalar abilene_cost_network.node[3].content_store 	decision_no[3] 	149159
scalar abilene_cost_network.node[3].content_store 	decision_ratio[3] 	0.0050494943835214
scalar abilene_cost_network.node[3].content_store 	correction_factor[3] 	0.0027225701061802
scalar abilene_cost_network.node[3].content_store 	xi[3] 	1
scalar abilene_cost_network.node[4].core_layer 	interests[4] 	34877
scalar abilene_cost_network.node[4].core_layer 	data[4] 	32316
scalar abilene_cost_network.node[4].content_store 	p_hit[4] 	0.073429480746624
scalar abilene_cost_network.node[4].content_store 	hits[4] 	2561
scalar abilene_cost_network.node[4].content_store 	misses[4] 	32316
scalar abilene_cost_network.node[4].content_store 	decision_yes[4] 	672
scalar abilene_cost_network.node[4].content_store 	decision_no[4] 	31644
scalar abilene_cost_network.node[4].content_store 	decision_ratio[4] 	0.020794652803565
scalar abilene_cost_network.node[4].content_store 	correction_factor[4] 	0.0027225701061802
scalar abilene_cost_network.node[4].content_store 	xi[4] 	1
scalar abilene_cost_network.node[5].core_layer 	interests[5] 	251657
scalar abilene_cost_network.node[5].core_layer 	repo_load[5] 	84609
scalar abilene_cost_network.node[5].core_layer 	data[5] 	127512
scalar abilene_cost_network.node[5].content_store 	p_hit[5] 	0.15204027704375
scalar abilene_cost_network.node[5].content_store 	hits[5] 	38262
scalar abilene_cost_network.node[5].content_store 	misses[5] 	213395
scalar abilene_cost_network.node[5].content_store 	decision_yes[5] 	2349
scalar abilene_cost_network.node[5].content_store 	decision_no[5] 	209772
scalar abilene_cost_network.node[5].content_store 	decision_ratio[5] 	0.011073868216725
scalar abilene_cost_network.node[5].content_store 	correction_factor[5] 	0.0027225701061802
scalar abilene_cost_network.node[5].content_store 	xi[5] 	1
scalar abilene_cost_network.node[6].core_layer 	interests[6] 	256490
scalar abilene_cost_network.node[6].core_layer 	repo_load[6] 	91574
scalar abilene_cost_network.node[6].core_layer 	data[6] 	114336
scalar abilene_cost_network.node[6].content_store 	p_hit[6] 	0.19720067059145
scalar abilene_cost_network.node[6].content_store 	hits[6] 	50580
scalar abilene_cost_network.node[6].content_store 	misses[6] 	205910
scalar abilene_cost_network.node[6].content_store 	decision_yes[6] 	1006
scalar abilene_cost_network.node[6].content_store 	decision_no[6] 	204904
scalar abilene_cost_network.node[6].content_store 	decision_ratio[6] 	0.0048856296440192
scalar abilene_cost_network.node[6].content_store 	correction_factor[6] 	0.0027225701061802
scalar abilene_cost_network.node[6].content_store 	xi[6] 	1
scalar abilene_cost_network.node[7].core_layer 	interests[7] 	370306
scalar abilene_cost_network.node[7].core_layer 	repo_load[7] 	223984
scalar abilene_cost_network.node[7].core_layer 	data[7] 	128978
scalar abilene_cost_network.node[7].content_store 	p_hit[7] 	0.046261740290462
scalar abilene_cost_network.node[7].content_store 	hits[7] 	17131
scalar abilene_cost_network.node[7].content_store 	misses[7] 	353175
scalar abilene_cost_network.node[7].content_store 	decision_yes[7] 	928
scalar abilene_cost_network.node[7].content_store 	decision_no[7] 	352034
scalar abilene_cost_network.node[7].content_store 	decision_ratio[7] 	0.0026291782118188
scalar abilene_cost_network.node[7].content_store 	correction_factor[7] 	0.0027225701061802
scalar abilene_cost_network.node[7].content_store 	xi[7] 	1
scalar abilene_cost_network.node[8].core_layer 	interests[8] 	0
scalar abilene_cost_network.node[8].core_layer 	data[8] 	0
scalar abilene_cost_network.node[8].content_store 	p_hit[8] 	-nan
scalar abilene_cost_network.node[8].content_store 	hits[8] 	0
scalar abilene_cost_network.node[8].content_store 	misses[8] 	0
scalar abilene_cost_network.node[8].content_store 	decision_yes[8] 	0
scalar abilene_cost_network.node[8].content_store 	decision_no[8] 	0
scalar abilene_cost_network.node[8].content_store 	decision_ratio[8] 	0
scalar abilene_cost_network.node[8].content_store 	correction_factor[8] 	0.0027225701061802
scalar abilene_cost_network.node[8].content_store 	xi[8] 	1
scalar abilene_cost_network.node[9].core_layer 	interests[9] 	0
scalar abilene_cost_network.node[9].core_layer 	data[9] 	0
scalar abilene_cost_network.node[9].content_store 	p_hit[9] 	-nan
scalar abilene_cost_network.node[9].content_store 	hits[9] 	0
scalar abilene_cost_network.node[9].content_store 	misses[9] 	0
scalar abilene_cost_network.node[9].content_store 	decision_yes[9] 	0
scalar abilene_cost_network.node[9].content_store 	decision_no[9] 	0
scalar abilene_cost_network.node[9].content_store 	decision_ratio[9] 	0
scalar abilene_cost_network.node[9].content_store 	correction_factor[9] 	0.0027225701061802
scalar abilene_cost_network.node[9].content_store 	xi[9] 	1
scalar abilene_cost_network.node[10].core_layer 	interests[10] 	0
scalar abilene_cost_network.node[10].core_layer 	data[10] 	0
scalar abilene_cost_network.node[10].content_store 	p_hit[10] 	-nan
scalar abilene_cost_network.node[10].content_store 	hits[10] 	0
scalar abilene_cost_network.node[10].content_store 	misses[10] 	0
scalar abilene_cost_network.node[10].content_store 	decision_yes[10] 	0
scalar abilene_cost_network.node[10].content_store 	decision_no[10] 	0
scalar abilene_cost_network.node[10].content_store 	decision_ratio[10] 	0
scalar abilene_cost_network.node[10].content_store 	correction_factor[10] 	0.0027225701061802
scalar abilene_cost_network.node[10].content_store 	xi[10] 	1
scalar abilene_cost_network.client[0] 	hdistance[0] 	4.7432422441494
scalar abilene_cost_network.client[0] 	downloads[0] 	175835
scalar abilene_cost_network.client[0] 	avg_time[0] 	0.026088868697
scalar abilene_cost_network.client[0] 	interests_sent[0] 	180246
scalar abilene_cost_network.client[5] 	hdistance[5] 	1.908325516995
scalar abilene_cost_network.client[5] 	downloads[5] 	179112
scalar abilene_cost_network.client[5] 	avg_time[5] 	0.004014189403
scalar abilene_cost_network.client[5] 	interests_sent[5] 	180386
scalar abilene_cost_network.client[7] 	hdistance[7] 	1.4767275580212
scalar abilene_cost_network.client[7] 	downloads[7] 	179719
scalar abilene_cost_network.client[7] 	avg_time[7] 	0.003424797082
scalar abilene_cost_network.client[7] 	interests_sent[7] 	179886
