version 2
run General-8-20140930-16:53:26-22120
attr D fix0.01
attr F spr
attr R lru
attr a 1
attr configname General
attr csize 1e3
attr ctlg 1e5
attr datetime 20140930-16:53:26
attr experiment General
attr inifile omnetpp.ini
attr iterationvars "$net=tiger_cost, $rep=17, $priceratiovalue=10, $weights=0.333_0.333_0.334, $lambda=100, $a=1, $ctlg=1e5, $F=spr, $ttl=10, $D=fix0.01, $xi=1, $R=lru, $csize=1e3, $pricebits=0, $window=60, $variance=0.05, $mytime=1800"
attr iterationvars2 "$net=tiger_cost, $rep=17, $priceratiovalue=10, $weights=0.333_0.333_0.334, $lambda=100, $a=1, $ctlg=1e5, $F=spr, $ttl=10, $D=fix0.01, $xi=1, $R=lru, $csize=1e3, $pricebits=0, $window=60, $variance=0.05, $mytime=1800, $repetition=0"
attr lambda 100
attr measurement "$net=tiger_cost, $rep=17, $priceratiovalue=10, $weights=0.333_0.333_0.334, $lambda=100, $a=1, $ctlg=1e5, $F=spr, $ttl=10, $D=fix0.01, $xi=1, $R=lru, $csize=1e3, $pricebits=0, $window=60, $variance=0.05, $mytime=1800"
attr mytime 1800
attr net tiger_cost
attr network networks.${net=level3_cost,tiger_cost,dtelecom_cost}_network
attr pricebits 0
attr priceratiovalue 10
attr processid 22120
attr rep 17
attr repetition 0
attr replication #0
attr resultdir results
attr runnumber 8
attr seedset 17
attr ttl 10
attr variance 0.05
attr weights 0.333_0.333_0.334
attr window 60
attr xi 1

scalar . 	a 	1
scalar . 	csize 	1e3
scalar . 	ctlg 	1e5
scalar . 	lambda 	100
scalar . 	mytime 	1800
scalar . 	pricebits 	0
scalar . 	priceratiovalue 	10
scalar . 	rep 	17
scalar . 	ttl 	10
scalar . 	variance 	0.05
scalar . 	window 	60
scalar . 	xi 	1
scalar tiger_cost_network.content_distribution 	repo-0 	21
scalar tiger_cost_network.content_distribution 	repo-1 	11
scalar tiger_cost_network.content_distribution 	repo-2 	13
scalar tiger_cost_network.content_distribution 	client-0 	0
scalar tiger_cost_network.content_distribution 	client-1 	5
scalar tiger_cost_network.content_distribution 	client-2 	10
scalar tiger_cost_network.content_distribution 	repo-0_card 	33434
scalar tiger_cost_network.content_distribution 	repo-0_price 	10
scalar tiger_cost_network.content_distribution 	repo-1_card 	33236
scalar tiger_cost_network.content_distribution 	repo-1_price 	0
scalar tiger_cost_network.content_distribution 	repo-2_card 	33330
scalar tiger_cost_network.content_distribution 	repo-2_price 	1
scalar tiger_cost_network.statistics 	repo_popularity[0] 	0.28775972584778
scalar tiger_cost_network.statistics 	repo_popularity[1] 	0.38489717054386
scalar tiger_cost_network.statistics 	repo_popularity[2] 	0.32734310360837
scalar tiger_cost_network.statistics 	stabilization_time 	36060
scalar tiger_cost_network.statistics 	p_hit 	0.18658831825472
scalar tiger_cost_network.statistics 	interests 	61752.136363636
scalar tiger_cost_network.statistics 	data 	37215.454545455
scalar tiger_cost_network.statistics 	hdistance 	2.0462612449264
scalar tiger_cost_network.statistics 	avg_time 	0.000585913936
scalar tiger_cost_network.statistics 	downloads 	539795
scalar tiger_cost_network.statistics 	total_cost 	962357
scalar tiger_cost_network.statistics 	total_replicas 	100000
scalar tiger_cost_network.statistics 	inner_hit 	0.46960234903991
scalar tiger_cost_network.node[0].core_layer 	interests[0] 	214300
scalar tiger_cost_network.node[0].core_layer 	data[0] 	154263
scalar tiger_cost_network.node[0].core_layer 	repo_int[0] 	286306
scalar tiger_cost_network.node[0].content_store 	p_hit[0] 	0.28014465702287
scalar tiger_cost_network.node[0].content_store 	hits[0] 	60035
scalar tiger_cost_network.node[0].content_store 	misses[0] 	154265
scalar tiger_cost_network.node[0].content_store 	decision_yes[0] 	1554
scalar tiger_cost_network.node[0].content_store 	decision_no[0] 	152709
scalar tiger_cost_network.node[0].content_store 	decision_ratio[0] 	0.010073705295502
scalar tiger_cost_network.node[1].core_layer 	interests[1] 	40689
scalar tiger_cost_network.node[1].core_layer 	data[1] 	35264
scalar tiger_cost_network.node[1].content_store 	p_hit[1] 	0.13330384133304
scalar tiger_cost_network.node[1].content_store 	hits[1] 	5424
scalar tiger_cost_network.node[1].content_store 	misses[1] 	35265
scalar tiger_cost_network.node[1].content_store 	decision_yes[1] 	339
scalar tiger_cost_network.node[1].content_store 	decision_no[1] 	34925
scalar tiger_cost_network.node[1].content_store 	decision_ratio[1] 	0.0096132032667877
scalar tiger_cost_network.node[2].core_layer 	interests[2] 	67401
scalar tiger_cost_network.node[2].core_layer 	data[2] 	63284
scalar tiger_cost_network.node[2].content_store 	p_hit[2] 	0.061082179789617
scalar tiger_cost_network.node[2].content_store 	hits[2] 	4117
scalar tiger_cost_network.node[2].content_store 	misses[2] 	63284
scalar tiger_cost_network.node[2].content_store 	decision_yes[2] 	641
scalar tiger_cost_network.node[2].content_store 	decision_no[2] 	62643
scalar tiger_cost_network.node[2].content_store 	decision_ratio[2] 	0.010128942544719
scalar tiger_cost_network.node[3].core_layer 	interests[3] 	35239
scalar tiger_cost_network.node[3].core_layer 	data[3] 	32137
scalar tiger_cost_network.node[3].content_store 	p_hit[3] 	0.088027469564971
scalar tiger_cost_network.node[3].content_store 	hits[3] 	3102
scalar tiger_cost_network.node[3].content_store 	misses[3] 	32137
scalar tiger_cost_network.node[3].content_store 	decision_yes[3] 	362
scalar tiger_cost_network.node[3].content_store 	decision_no[3] 	31775
scalar tiger_cost_network.node[3].content_store 	decision_ratio[3] 	0.011264274823412
scalar tiger_cost_network.node[4].core_layer 	interests[4] 	41077
scalar tiger_cost_network.node[4].core_layer 	data[4] 	35239
scalar tiger_cost_network.node[4].content_store 	p_hit[4] 	0.14212332935706
scalar tiger_cost_network.node[4].content_store 	hits[4] 	5838
scalar tiger_cost_network.node[4].content_store 	misses[4] 	35239
scalar tiger_cost_network.node[4].content_store 	decision_yes[4] 	342
scalar tiger_cost_network.node[4].content_store 	decision_no[4] 	34897
scalar tiger_cost_network.node[4].content_store 	decision_ratio[4] 	0.0097051562189619
scalar tiger_cost_network.node[5].core_layer 	interests[5] 	180410
scalar tiger_cost_network.node[5].core_layer 	data[5] 	120267
scalar tiger_cost_network.node[5].content_store 	p_hit[5] 	0.33332963804667
scalar tiger_cost_network.node[5].content_store 	hits[5] 	60136
scalar tiger_cost_network.node[5].content_store 	misses[5] 	120274
scalar tiger_cost_network.node[5].content_store 	decision_yes[5] 	1225
scalar tiger_cost_network.node[5].content_store 	decision_no[5] 	119042
scalar tiger_cost_network.node[5].content_store 	decision_ratio[5] 	0.0101856702171
scalar tiger_cost_network.node[6].core_layer 	interests[6] 	35331
scalar tiger_cost_network.node[6].core_layer 	data[6] 	31420
scalar tiger_cost_network.node[6].content_store 	p_hit[6] 	0.11069598935779
scalar tiger_cost_network.node[6].content_store 	hits[6] 	3911
scalar tiger_cost_network.node[6].content_store 	misses[6] 	31420
scalar tiger_cost_network.node[6].content_store 	decision_yes[6] 	282
scalar tiger_cost_network.node[6].content_store 	decision_no[6] 	31138
scalar tiger_cost_network.node[6].content_store 	decision_ratio[6] 	0.0089751750477403
scalar tiger_cost_network.node[7].core_layer 	interests[7] 	31420
scalar tiger_cost_network.node[7].core_layer 	data[7] 	29768
scalar tiger_cost_network.node[7].content_store 	p_hit[7] 	0.052577975811585
scalar tiger_cost_network.node[7].content_store 	hits[7] 	1652
scalar tiger_cost_network.node[7].content_store 	misses[7] 	29768
scalar tiger_cost_network.node[7].content_store 	decision_yes[7] 	320
scalar tiger_cost_network.node[7].content_store 	decision_no[7] 	29448
scalar tiger_cost_network.node[7].content_store 	decision_ratio[7] 	0.010749798441279
scalar tiger_cost_network.node[8].core_layer 	interests[8] 	29768
scalar tiger_cost_network.node[8].core_layer 	data[8] 	28607
scalar tiger_cost_network.node[8].content_store 	p_hit[8] 	0.039001612469766
scalar tiger_cost_network.node[8].content_store 	hits[8] 	1161
scalar tiger_cost_network.node[8].content_store 	misses[8] 	28607
scalar tiger_cost_network.node[8].content_store 	decision_yes[8] 	293
scalar tiger_cost_network.node[8].content_store 	decision_no[8] 	28314
scalar tiger_cost_network.node[8].content_store 	decision_ratio[8] 	0.010242248400741
scalar tiger_cost_network.node[9].core_layer 	interests[9] 	35316
scalar tiger_cost_network.node[9].core_layer 	data[9] 	31190
scalar tiger_cost_network.node[9].content_store 	p_hit[9] 	0.11683089817646
scalar tiger_cost_network.node[9].content_store 	hits[9] 	4126
scalar tiger_cost_network.node[9].content_store 	misses[9] 	31190
scalar tiger_cost_network.node[9].content_store 	decision_yes[9] 	290
scalar tiger_cost_network.node[9].content_store 	decision_no[9] 	30900
scalar tiger_cost_network.node[9].content_store 	decision_ratio[9] 	0.0092978518756012
scalar tiger_cost_network.node[10].core_layer 	interests[10] 	179483
scalar tiger_cost_network.node[10].core_layer 	data[10] 	119436
scalar tiger_cost_network.node[10].content_store 	p_hit[10] 	0.33454421867252
scalar tiger_cost_network.node[10].content_store 	hits[10] 	60045
scalar tiger_cost_network.node[10].content_store 	misses[10] 	119438
scalar tiger_cost_network.node[10].content_store 	decision_yes[10] 	1231
scalar tiger_cost_network.node[10].content_store 	decision_no[10] 	118205
scalar tiger_cost_network.node[10].content_store 	decision_ratio[10] 	0.010306775176664
scalar tiger_cost_network.node[11].core_layer 	interests[11] 	120729
scalar tiger_cost_network.node[11].core_layer 	repo_load[11] 	106247
scalar tiger_cost_network.node[11].core_layer 	data[11] 	0
scalar tiger_cost_network.node[11].content_store 	p_hit[11] 	0.11995460908315
scalar tiger_cost_network.node[11].content_store 	hits[11] 	14482
scalar tiger_cost_network.node[11].content_store 	misses[11] 	106247
scalar tiger_cost_network.node[11].content_store 	decision_yes[11] 	1038
scalar tiger_cost_network.node[11].content_store 	decision_no[11] 	105209
scalar tiger_cost_network.node[11].content_store 	decision_ratio[11] 	0.0097696876147091
scalar tiger_cost_network.node[12].core_layer 	interests[12] 	41175
scalar tiger_cost_network.node[12].core_layer 	data[12] 	34669
scalar tiger_cost_network.node[12].content_store 	p_hit[12] 	0.15800850030358
scalar tiger_cost_network.node[12].content_store 	hits[12] 	6506
scalar tiger_cost_network.node[12].content_store 	misses[12] 	34669
scalar tiger_cost_network.node[12].content_store 	decision_yes[12] 	339
scalar tiger_cost_network.node[12].content_store 	decision_no[12] 	34330
scalar tiger_cost_network.node[12].content_store 	decision_ratio[12] 	0.0097781880065765
scalar tiger_cost_network.node[13].core_layer 	interests[13] 	97953
scalar tiger_cost_network.node[13].core_layer 	repo_load[13] 	93137
scalar tiger_cost_network.node[13].core_layer 	data[13] 	0
scalar tiger_cost_network.node[13].content_store 	p_hit[13] 	0.049166436964667
scalar tiger_cost_network.node[13].content_store 	hits[13] 	4816
scalar tiger_cost_network.node[13].content_store 	misses[13] 	93137
scalar tiger_cost_network.node[13].content_store 	decision_yes[13] 	918
scalar tiger_cost_network.node[13].content_store 	decision_no[13] 	92219
scalar tiger_cost_network.node[13].content_store 	decision_ratio[13] 	0.0098564480281736
scalar tiger_cost_network.node[14].core_layer 	interests[14] 	0
scalar tiger_cost_network.node[14].core_layer 	data[14] 	0
scalar tiger_cost_network.node[14].content_store 	p_hit[14] 	-nan
scalar tiger_cost_network.node[14].content_store 	hits[14] 	0
scalar tiger_cost_network.node[14].content_store 	misses[14] 	0
scalar tiger_cost_network.node[14].content_store 	decision_yes[14] 	0
scalar tiger_cost_network.node[14].content_store 	decision_no[14] 	0
scalar tiger_cost_network.node[14].content_store 	decision_ratio[14] 	0
scalar tiger_cost_network.node[15].core_layer 	interests[15] 	0
scalar tiger_cost_network.node[15].core_layer 	data[15] 	0
scalar tiger_cost_network.node[15].content_store 	p_hit[15] 	-nan
scalar tiger_cost_network.node[15].content_store 	hits[15] 	0
scalar tiger_cost_network.node[15].content_store 	misses[15] 	0
scalar tiger_cost_network.node[15].content_store 	decision_yes[15] 	0
scalar tiger_cost_network.node[15].content_store 	decision_no[15] 	0
scalar tiger_cost_network.node[15].content_store 	decision_ratio[15] 	0
scalar tiger_cost_network.node[16].core_layer 	interests[16] 	0
scalar tiger_cost_network.node[16].core_layer 	data[16] 	0
scalar tiger_cost_network.node[16].content_store 	p_hit[16] 	-nan
scalar tiger_cost_network.node[16].content_store 	hits[16] 	0
scalar tiger_cost_network.node[16].content_store 	misses[16] 	0
scalar tiger_cost_network.node[16].content_store 	decision_yes[16] 	0
scalar tiger_cost_network.node[16].content_store 	decision_no[16] 	0
scalar tiger_cost_network.node[16].content_store 	decision_ratio[16] 	0
scalar tiger_cost_network.node[17].core_layer 	interests[17] 	43860
scalar tiger_cost_network.node[17].core_layer 	data[17] 	37582
scalar tiger_cost_network.node[17].content_store 	p_hit[17] 	0.14313725490196
scalar tiger_cost_network.node[17].content_store 	hits[17] 	6278
scalar tiger_cost_network.node[17].content_store 	misses[17] 	37582
scalar tiger_cost_network.node[17].content_store 	decision_yes[17] 	338
scalar tiger_cost_network.node[17].content_store 	decision_no[17] 	37244
scalar tiger_cost_network.node[17].content_store 	decision_ratio[17] 	0.0089936671810973
scalar tiger_cost_network.node[18].core_layer 	interests[18] 	37582
scalar tiger_cost_network.node[18].core_layer 	data[18] 	34388
scalar tiger_cost_network.node[18].content_store 	p_hit[18] 	0.084987494013091
scalar tiger_cost_network.node[18].content_store 	hits[18] 	3194
scalar tiger_cost_network.node[18].content_store 	misses[18] 	34388
scalar tiger_cost_network.node[18].content_store 	decision_yes[18] 	368
scalar tiger_cost_network.node[18].content_store 	decision_no[18] 	34020
scalar tiger_cost_network.node[18].content_store 	decision_ratio[18] 	0.010701407467721
scalar tiger_cost_network.node[19].core_layer 	interests[19] 	35791
scalar tiger_cost_network.node[19].core_layer 	data[19] 	31226
scalar tiger_cost_network.node[19].content_store 	p_hit[19] 	0.12754603112514
scalar tiger_cost_network.node[19].content_store 	hits[19] 	4565
scalar tiger_cost_network.node[19].content_store 	misses[19] 	31226
scalar tiger_cost_network.node[19].content_store 	decision_yes[19] 	280
scalar tiger_cost_network.node[19].content_store 	decision_no[19] 	30946
scalar tiger_cost_network.node[19].content_store 	decision_ratio[19] 	0.0089668865688849
scalar tiger_cost_network.node[20].core_layer 	interests[20] 	0
scalar tiger_cost_network.node[20].core_layer 	data[20] 	0
scalar tiger_cost_network.node[20].content_store 	p_hit[20] 	-nan
scalar tiger_cost_network.node[20].content_store 	hits[20] 	0
scalar tiger_cost_network.node[20].content_store 	misses[20] 	0
scalar tiger_cost_network.node[20].content_store 	decision_yes[20] 	0
scalar tiger_cost_network.node[20].content_store 	decision_no[20] 	0
scalar tiger_cost_network.node[20].content_store 	decision_ratio[20] 	0
scalar tiger_cost_network.node[21].core_layer 	interests[21] 	91023
scalar tiger_cost_network.node[21].core_layer 	repo_load[21] 	86922
scalar tiger_cost_network.node[21].core_layer 	data[21] 	0
scalar tiger_cost_network.node[21].content_store 	p_hit[21] 	0.045054546653044
scalar tiger_cost_network.node[21].content_store 	hits[21] 	4101
scalar tiger_cost_network.node[21].content_store 	misses[21] 	86922
scalar tiger_cost_network.node[21].content_store 	decision_yes[21] 	928
scalar tiger_cost_network.node[21].content_store 	decision_no[21] 	85994
scalar tiger_cost_network.node[21].content_store 	decision_ratio[21] 	0.010676238466671
scalar tiger_cost_network.client[0] 	hdistance[0] 	1.5939881385796
scalar tiger_cost_network.client[0] 	downloads[0] 	179911
scalar tiger_cost_network.client[0] 	avg_time[0] 	0.000275540417
scalar tiger_cost_network.client[5] 	hdistance[5] 	2.7836676773668
scalar tiger_cost_network.client[5] 	downloads[5] 	180403
scalar tiger_cost_network.client[5] 	avg_time[5] 	0.001164632267
scalar tiger_cost_network.client[10] 	hdistance[10] 	1.7611279188326
scalar tiger_cost_network.client[10] 	downloads[10] 	179481
scalar tiger_cost_network.client[10] 	avg_time[10] 	0.000317569126
