version 2
run General-2-20140930-18:47:30-22540
attr D fix0.01
attr F spr
attr R lru
attr a 1
attr configname General
attr csize 1e3
attr ctlg 1e5
attr datetime 20140930-18:47:30
attr experiment General
attr inifile omnetpp.ini
attr iterationvars "$net=tiger_cost, $rep=6, $priceratiovalue=10, $weights=0.333_0.333_0.334, $lambda=100, $a=1, $ctlg=1e5, $F=spr, $ttl=10, $D=fix0.01, $xi=1, $R=lru, $csize=1e3, $pricebits=0, $window=60, $variance=0.05, $mytime=1800"
attr iterationvars2 "$net=tiger_cost, $rep=6, $priceratiovalue=10, $weights=0.333_0.333_0.334, $lambda=100, $a=1, $ctlg=1e5, $F=spr, $ttl=10, $D=fix0.01, $xi=1, $R=lru, $csize=1e3, $pricebits=0, $window=60, $variance=0.05, $mytime=1800, $repetition=0"
attr lambda 100
attr measurement "$net=tiger_cost, $rep=6, $priceratiovalue=10, $weights=0.333_0.333_0.334, $lambda=100, $a=1, $ctlg=1e5, $F=spr, $ttl=10, $D=fix0.01, $xi=1, $R=lru, $csize=1e3, $pricebits=0, $window=60, $variance=0.05, $mytime=1800"
attr mytime 1800
attr net tiger_cost
attr network networks.${net=tiger_cost,dtelecom_cost}_network
attr pricebits 0
attr priceratiovalue 10
attr processid 22540
attr rep 6
attr repetition 0
attr replication #0
attr resultdir results
attr runnumber 2
attr seedset 6
attr ttl 10
attr variance 0.05
attr weights 0.333_0.333_0.334
attr window 60
attr xi 1

scalar . 	a 	1
scalar . 	csize 	1e3
scalar . 	ctlg 	1e5
scalar . 	lambda 	100
scalar . 	mytime 	1800
scalar . 	pricebits 	0
scalar . 	priceratiovalue 	10
scalar . 	rep 	6
scalar . 	ttl 	10
scalar . 	variance 	0.05
scalar . 	window 	60
scalar . 	xi 	1
scalar tiger_cost_network.content_distribution 	repo-0 	14
scalar tiger_cost_network.content_distribution 	repo-1 	21
scalar tiger_cost_network.content_distribution 	repo-2 	2
scalar tiger_cost_network.content_distribution 	client-0 	19
scalar tiger_cost_network.content_distribution 	client-1 	20
scalar tiger_cost_network.content_distribution 	client-2 	10
scalar tiger_cost_network.content_distribution 	repo-0_card 	33435
scalar tiger_cost_network.content_distribution 	repo-0_price 	0
scalar tiger_cost_network.content_distribution 	repo-1_card 	33142
scalar tiger_cost_network.content_distribution 	repo-1_price 	1
scalar tiger_cost_network.content_distribution 	repo-2_card 	33423
scalar tiger_cost_network.content_distribution 	repo-2_price 	10
scalar tiger_cost_network.statistics 	repo_popularity[0] 	0.40396321781755
scalar tiger_cost_network.statistics 	repo_popularity[1] 	0.26951999071203
scalar tiger_cost_network.statistics 	repo_popularity[2] 	0.32651679147044
scalar tiger_cost_network.statistics 	stabilization_time 	36060
scalar tiger_cost_network.statistics 	p_hit 	0.1656697266469
scalar tiger_cost_network.statistics 	interests 	68900.227272727
scalar tiger_cost_network.statistics 	data 	44353.545454545
scalar tiger_cost_network.statistics 	hdistance 	2.3421165010128
scalar tiger_cost_network.statistics 	avg_time 	0.000596411135
scalar tiger_cost_network.statistics 	downloads 	540019
scalar tiger_cost_network.statistics 	total_cost 	1062496
scalar tiger_cost_network.statistics 	total_replicas 	100000
scalar tiger_cost_network.statistics 	inner_hit 	0.46502623055855
scalar tiger_cost_network.node[0].core_layer 	interests[0] 	81199
scalar tiger_cost_network.node[0].core_layer 	data[0] 	73609
scalar tiger_cost_network.node[0].core_layer 	repo_int[0] 	288896
scalar tiger_cost_network.node[0].content_store 	p_hit[0] 	0.093474057562285
scalar tiger_cost_network.node[0].content_store 	hits[0] 	7590
scalar tiger_cost_network.node[0].content_store 	misses[0] 	73609
scalar tiger_cost_network.node[0].content_store 	decision_yes[0] 	805
scalar tiger_cost_network.node[0].content_store 	decision_no[0] 	72804
scalar tiger_cost_network.node[0].content_store 	decision_ratio[0] 	0.010936162697496
scalar tiger_cost_network.node[1].core_layer 	interests[1] 	112104
scalar tiger_cost_network.node[1].core_layer 	data[1] 	104332
scalar tiger_cost_network.node[1].content_store 	p_hit[1] 	0.069328480696496
scalar tiger_cost_network.node[1].content_store 	hits[1] 	7772
scalar tiger_cost_network.node[1].content_store 	misses[1] 	104332
scalar tiger_cost_network.node[1].content_store 	decision_yes[1] 	1058
scalar tiger_cost_network.node[1].content_store 	decision_no[1] 	103274
scalar tiger_cost_network.node[1].content_store 	decision_ratio[1] 	0.010140704673542
scalar tiger_cost_network.node[2].core_layer 	interests[2] 	139179
scalar tiger_cost_network.node[2].core_layer 	repo_load[2] 	96213
scalar tiger_cost_network.node[2].core_layer 	data[2] 	36625
scalar tiger_cost_network.node[2].content_store 	p_hit[2] 	0.045560034200562
scalar tiger_cost_network.node[2].content_store 	hits[2] 	6341
scalar tiger_cost_network.node[2].content_store 	misses[2] 	132838
scalar tiger_cost_network.node[2].content_store 	decision_yes[2] 	1412
scalar tiger_cost_network.node[2].content_store 	decision_no[2] 	131426
scalar tiger_cost_network.node[2].content_store 	decision_ratio[2] 	0.010629488549963
scalar tiger_cost_network.node[3].core_layer 	interests[3] 	67440
scalar tiger_cost_network.node[3].core_layer 	data[3] 	63550
scalar tiger_cost_network.node[3].content_store 	p_hit[3] 	0.057680901542112
scalar tiger_cost_network.node[3].content_store 	hits[3] 	3890
scalar tiger_cost_network.node[3].content_store 	misses[3] 	63550
scalar tiger_cost_network.node[3].content_store 	decision_yes[3] 	680
scalar tiger_cost_network.node[3].content_store 	decision_no[3] 	62870
scalar tiger_cost_network.node[3].content_store 	decision_ratio[3] 	0.010700236034618
scalar tiger_cost_network.node[4].core_layer 	interests[4] 	32119
scalar tiger_cost_network.node[4].core_layer 	data[4] 	30815
scalar tiger_cost_network.node[4].content_store 	p_hit[4] 	0.040599022385504
scalar tiger_cost_network.node[4].content_store 	hits[4] 	1304
scalar tiger_cost_network.node[4].content_store 	misses[4] 	30815
scalar tiger_cost_network.node[4].content_store 	decision_yes[4] 	318
scalar tiger_cost_network.node[4].content_store 	decision_no[4] 	30497
scalar tiger_cost_network.node[4].content_store 	decision_ratio[4] 	0.010319649521337
scalar tiger_cost_network.node[5].core_layer 	interests[5] 	0
scalar tiger_cost_network.node[5].core_layer 	data[5] 	0
scalar tiger_cost_network.node[5].content_store 	p_hit[5] 	-nan
scalar tiger_cost_network.node[5].content_store 	hits[5] 	0
scalar tiger_cost_network.node[5].content_store 	misses[5] 	0
scalar tiger_cost_network.node[5].content_store 	decision_yes[5] 	0
scalar tiger_cost_network.node[5].content_store 	decision_no[5] 	0
scalar tiger_cost_network.node[5].content_store 	decision_ratio[5] 	0
scalar tiger_cost_network.node[6].core_layer 	interests[6] 	0
scalar tiger_cost_network.node[6].core_layer 	data[6] 	0
scalar tiger_cost_network.node[6].content_store 	p_hit[6] 	-nan
scalar tiger_cost_network.node[6].content_store 	hits[6] 	0
scalar tiger_cost_network.node[6].content_store 	misses[6] 	0
scalar tiger_cost_network.node[6].content_store 	decision_yes[6] 	0
scalar tiger_cost_network.node[6].content_store 	decision_no[6] 	0
scalar tiger_cost_network.node[6].content_store 	decision_ratio[6] 	0
scalar tiger_cost_network.node[7].core_layer 	interests[7] 	39254
scalar tiger_cost_network.node[7].core_layer 	data[7] 	33865
scalar tiger_cost_network.node[7].content_store 	p_hit[7] 	0.13728537219137
scalar tiger_cost_network.node[7].content_store 	hits[7] 	5389
scalar tiger_cost_network.node[7].content_store 	misses[7] 	33865
scalar tiger_cost_network.node[7].content_store 	decision_yes[7] 	335
scalar tiger_cost_network.node[7].content_store 	decision_no[7] 	33530
scalar tiger_cost_network.node[7].content_store 	decision_ratio[7] 	0.0098922191052709
scalar tiger_cost_network.node[8].core_layer 	interests[8] 	33865
scalar tiger_cost_network.node[8].core_layer 	data[8] 	31447
scalar tiger_cost_network.node[8].content_store 	p_hit[8] 	0.071401151631478
scalar tiger_cost_network.node[8].content_store 	hits[8] 	2418
scalar tiger_cost_network.node[8].content_store 	misses[8] 	31447
scalar tiger_cost_network.node[8].content_store 	decision_yes[8] 	324
scalar tiger_cost_network.node[8].content_store 	decision_no[8] 	31123
scalar tiger_cost_network.node[8].content_store 	decision_ratio[8] 	0.010303049575476
scalar tiger_cost_network.node[9].core_layer 	interests[9] 	39586
scalar tiger_cost_network.node[9].core_layer 	data[9] 	34197
scalar tiger_cost_network.node[9].content_store 	p_hit[9] 	0.136133986763
scalar tiger_cost_network.node[9].content_store 	hits[9] 	5389
scalar tiger_cost_network.node[9].content_store 	misses[9] 	34197
scalar tiger_cost_network.node[9].content_store 	decision_yes[9] 	349
scalar tiger_cost_network.node[9].content_store 	decision_no[9] 	33848
scalar tiger_cost_network.node[9].content_store 	decision_ratio[9] 	0.010205573588326
scalar tiger_cost_network.node[10].core_layer 	interests[10] 	180383
scalar tiger_cost_network.node[10].core_layer 	data[10] 	120243
scalar tiger_cost_network.node[10].content_store 	p_hit[10] 	0.33337953133056
scalar tiger_cost_network.node[10].content_store 	hits[10] 	60136
scalar tiger_cost_network.node[10].content_store 	misses[10] 	120247
scalar tiger_cost_network.node[10].content_store 	decision_yes[10] 	1160
scalar tiger_cost_network.node[10].content_store 	decision_no[10] 	119083
scalar tiger_cost_network.node[10].content_store 	decision_ratio[10] 	0.0096471312259341
scalar tiger_cost_network.node[11].core_layer 	interests[11] 	0
scalar tiger_cost_network.node[11].core_layer 	data[11] 	0
scalar tiger_cost_network.node[11].content_store 	p_hit[11] 	-nan
scalar tiger_cost_network.node[11].content_store 	hits[11] 	0
scalar tiger_cost_network.node[11].content_store 	misses[11] 	0
scalar tiger_cost_network.node[11].content_store 	decision_yes[11] 	0
scalar tiger_cost_network.node[11].content_store 	decision_no[11] 	0
scalar tiger_cost_network.node[11].content_store 	decision_ratio[11] 	0
scalar tiger_cost_network.node[12].core_layer 	interests[12] 	73609
scalar tiger_cost_network.node[12].core_layer 	data[12] 	69810
scalar tiger_cost_network.node[12].content_store 	p_hit[12] 	0.051610536755016
scalar tiger_cost_network.node[12].content_store 	hits[12] 	3799
scalar tiger_cost_network.node[12].content_store 	misses[12] 	69810
scalar tiger_cost_network.node[12].content_store 	decision_yes[12] 	670
scalar tiger_cost_network.node[12].content_store 	decision_no[12] 	69140
scalar tiger_cost_network.node[12].content_store 	decision_ratio[12] 	0.0095974788712219
scalar tiger_cost_network.node[13].core_layer 	interests[13] 	34963
scalar tiger_cost_network.node[13].core_layer 	data[13] 	32954
scalar tiger_cost_network.node[13].content_store 	p_hit[13] 	0.057460744215313
scalar tiger_cost_network.node[13].content_store 	hits[13] 	2009
scalar tiger_cost_network.node[13].content_store 	misses[13] 	32954
scalar tiger_cost_network.node[13].content_store 	decision_yes[13] 	299
scalar tiger_cost_network.node[13].content_store 	decision_no[13] 	32655
scalar tiger_cost_network.node[13].content_store 	decision_ratio[13] 	0.0090732536262669
scalar tiger_cost_network.node[14].core_layer 	interests[14] 	96504
scalar tiger_cost_network.node[14].core_layer 	repo_load[14] 	92317
scalar tiger_cost_network.node[14].core_layer 	data[14] 	0
scalar tiger_cost_network.node[14].content_store 	p_hit[14] 	0.043386802619581
scalar tiger_cost_network.node[14].content_store 	hits[14] 	4187
scalar tiger_cost_network.node[14].content_store 	misses[14] 	92317
scalar tiger_cost_network.node[14].content_store 	decision_yes[14] 	950
scalar tiger_cost_network.node[14].content_store 	decision_no[14] 	91367
scalar tiger_cost_network.node[14].content_store 	decision_ratio[14] 	0.01029062902824
scalar tiger_cost_network.node[15].core_layer 	interests[15] 	0
scalar tiger_cost_network.node[15].core_layer 	data[15] 	0
scalar tiger_cost_network.node[15].content_store 	p_hit[15] 	-nan
scalar tiger_cost_network.node[15].content_store 	hits[15] 	0
scalar tiger_cost_network.node[15].content_store 	misses[15] 	0
scalar tiger_cost_network.node[15].content_store 	decision_yes[15] 	0
scalar tiger_cost_network.node[15].content_store 	decision_no[15] 	0
scalar tiger_cost_network.node[15].content_store 	decision_ratio[15] 	0
scalar tiger_cost_network.node[16].core_layer 	interests[16] 	0
scalar tiger_cost_network.node[16].core_layer 	data[16] 	0
scalar tiger_cost_network.node[16].content_store 	p_hit[16] 	-nan
scalar tiger_cost_network.node[16].content_store 	hits[16] 	0
scalar tiger_cost_network.node[16].content_store 	misses[16] 	0
scalar tiger_cost_network.node[16].content_store 	decision_yes[16] 	0
scalar tiger_cost_network.node[16].content_store 	decision_no[16] 	0
scalar tiger_cost_network.node[16].content_store 	decision_ratio[16] 	0
scalar tiger_cost_network.node[17].core_layer 	interests[17] 	34395
scalar tiger_cost_network.node[17].core_layer 	data[17] 	32119
scalar tiger_cost_network.node[17].content_store 	p_hit[17] 	0.066172408780346
scalar tiger_cost_network.node[17].content_store 	hits[17] 	2276
scalar tiger_cost_network.node[17].content_store 	misses[17] 	32119
scalar tiger_cost_network.node[17].content_store 	decision_yes[17] 	292
scalar tiger_cost_network.node[17].content_store 	decision_no[17] 	31827
scalar tiger_cost_network.node[17].content_store 	decision_ratio[17] 	0.0090911921292693
scalar tiger_cost_network.node[18].core_layer 	interests[18] 	39916
scalar tiger_cost_network.node[18].core_layer 	data[18] 	34395
scalar tiger_cost_network.node[18].content_store 	p_hit[18] 	0.13831546247119
scalar tiger_cost_network.node[18].content_store 	hits[18] 	5521
scalar tiger_cost_network.node[18].content_store 	misses[18] 	34395
scalar tiger_cost_network.node[18].content_store 	decision_yes[18] 	345
scalar tiger_cost_network.node[18].content_store 	decision_no[18] 	34050
scalar tiger_cost_network.node[18].content_store 	decision_ratio[18] 	0.010030527692979
scalar tiger_cost_network.node[19].core_layer 	interests[19] 	220307
scalar tiger_cost_network.node[19].core_layer 	data[19] 	158250
scalar tiger_cost_network.node[19].content_store 	p_hit[19] 	0.28167965611624
scalar tiger_cost_network.node[19].content_store 	hits[19] 	62056
scalar tiger_cost_network.node[19].content_store 	misses[19] 	158251
scalar tiger_cost_network.node[19].content_store 	decision_yes[19] 	1561
scalar tiger_cost_network.node[19].content_store 	decision_no[19] 	156689
scalar tiger_cost_network.node[19].content_store 	decision_ratio[19] 	0.0098641390205371
scalar tiger_cost_network.node[20].core_layer 	interests[20] 	179734
scalar tiger_cost_network.node[20].core_layer 	data[20] 	119567
scalar tiger_cost_network.node[20].content_store 	p_hit[20] 	0.33473911446916
scalar tiger_cost_network.node[20].content_store 	hits[20] 	60164
scalar tiger_cost_network.node[20].content_store 	misses[20] 	119570
scalar tiger_cost_network.node[20].content_store 	decision_yes[20] 	1193
scalar tiger_cost_network.node[20].content_store 	decision_no[20] 	118374
scalar tiger_cost_network.node[20].content_store 	decision_ratio[20] 	0.0099776694238377
scalar tiger_cost_network.node[21].core_layer 	interests[21] 	111248
scalar tiger_cost_network.node[21].core_layer 	repo_load[21] 	100366
scalar tiger_cost_network.node[21].core_layer 	data[21] 	0
scalar tiger_cost_network.node[21].content_store 	p_hit[21] 	0.097817488853732
scalar tiger_cost_network.node[21].content_store 	hits[21] 	10882
scalar tiger_cost_network.node[21].content_store 	misses[21] 	100366
scalar tiger_cost_network.node[21].content_store 	decision_yes[21] 	1014
scalar tiger_cost_network.node[21].content_store 	decision_no[21] 	99352
scalar tiger_cost_network.node[21].content_store 	decision_ratio[21] 	0.010103022936054
scalar tiger_cost_network.client[10] 	hdistance[10] 	2.2048353744061
scalar tiger_cost_network.client[10] 	downloads[10] 	180379
scalar tiger_cost_network.client[10] 	avg_time[10] 	0.000558939832
scalar tiger_cost_network.client[19] 	hdistance[19] 	2.2047423975454
scalar tiger_cost_network.client[19] 	downloads[19] 	179909
scalar tiger_cost_network.client[19] 	avg_time[19] 	0.000500571283
scalar tiger_cost_network.client[20] 	hdistance[20] 	2.616771731087
scalar tiger_cost_network.client[20] 	downloads[20] 	179731
scalar tiger_cost_network.client[20] 	avg_time[20] 	0.000729722291
