version 2
run General-2-20140930-19:15:20-29347
attr D fix0.01
attr F spr
attr R lru
attr a 1
attr configname General
attr csize 1e3
attr ctlg 1e5
attr datetime 20140930-19:15:20
attr experiment General
attr inifile omnetpp.ini
attr iterationvars "$net=tiger_cost, $rep=10, $priceratiovalue=10, $weights=0.333_0.333_0.334, $lambda=100, $a=1, $ctlg=1e5, $F=spr, $ttl=10, $D=fix0.01, $xi=1, $R=lru, $csize=1e3, $pricebits=0, $window=60, $variance=0.05, $mytime=1800"
attr iterationvars2 "$net=tiger_cost, $rep=10, $priceratiovalue=10, $weights=0.333_0.333_0.334, $lambda=100, $a=1, $ctlg=1e5, $F=spr, $ttl=10, $D=fix0.01, $xi=1, $R=lru, $csize=1e3, $pricebits=0, $window=60, $variance=0.05, $mytime=1800, $repetition=0"
attr lambda 100
attr measurement "$net=tiger_cost, $rep=10, $priceratiovalue=10, $weights=0.333_0.333_0.334, $lambda=100, $a=1, $ctlg=1e5, $F=spr, $ttl=10, $D=fix0.01, $xi=1, $R=lru, $csize=1e3, $pricebits=0, $window=60, $variance=0.05, $mytime=1800"
attr mytime 1800
attr net tiger_cost
attr network networks.${net=tiger_cost,dtelecom_cost}_network
attr pricebits 0
attr priceratiovalue 10
attr processid 29347
attr rep 10
attr repetition 0
attr replication #0
attr resultdir results
attr runnumber 2
attr seedset 10
attr ttl 10
attr variance 0.05
attr weights 0.333_0.333_0.334
attr window 60
attr xi 1

scalar . 	a 	1
scalar . 	csize 	1e3
scalar . 	ctlg 	1e5
scalar . 	lambda 	100
scalar . 	mytime 	1800
scalar . 	pricebits 	0
scalar . 	priceratiovalue 	10
scalar . 	rep 	10
scalar . 	ttl 	10
scalar . 	variance 	0.05
scalar . 	window 	60
scalar . 	xi 	1
scalar tiger_cost_network.content_distribution 	repo-0 	18
scalar tiger_cost_network.content_distribution 	repo-1 	16
scalar tiger_cost_network.content_distribution 	repo-2 	2
scalar tiger_cost_network.content_distribution 	client-0 	6
scalar tiger_cost_network.content_distribution 	client-1 	10
scalar tiger_cost_network.content_distribution 	client-2 	14
scalar tiger_cost_network.content_distribution 	repo-0_card 	33052
scalar tiger_cost_network.content_distribution 	repo-0_price 	1
scalar tiger_cost_network.content_distribution 	repo-1_card 	33537
scalar tiger_cost_network.content_distribution 	repo-1_price 	0
scalar tiger_cost_network.content_distribution 	repo-2_card 	33411
scalar tiger_cost_network.content_distribution 	repo-2_price 	10
scalar tiger_cost_network.statistics 	repo_popularity[0] 	0.34236468954978
scalar tiger_cost_network.statistics 	repo_popularity[1] 	0.29818826856529
scalar tiger_cost_network.statistics 	repo_popularity[2] 	0.35944704188494
scalar tiger_cost_network.statistics 	stabilization_time 	36060
scalar tiger_cost_network.statistics 	p_hit 	0.17330805957268
scalar tiger_cost_network.statistics 	interests 	65728.727272727
scalar tiger_cost_network.statistics 	data 	41166.863636364
scalar tiger_cost_network.statistics 	hdistance 	2.211993012989
scalar tiger_cost_network.statistics 	avg_time 	0.000618230789
scalar tiger_cost_network.statistics 	downloads 	540346
scalar tiger_cost_network.statistics 	total_cost 	1048968
scalar tiger_cost_network.statistics 	total_replicas 	100000
scalar tiger_cost_network.statistics 	inner_hit 	0.46379356930559
scalar tiger_cost_network.node[0].core_layer 	interests[0] 	66334
scalar tiger_cost_network.node[0].core_layer 	data[0] 	62305
scalar tiger_cost_network.node[0].core_layer 	repo_int[0] 	289737
scalar tiger_cost_network.node[0].content_store 	p_hit[0] 	0.060738083034341
scalar tiger_cost_network.node[0].content_store 	hits[0] 	4029
scalar tiger_cost_network.node[0].content_store 	misses[0] 	62305
scalar tiger_cost_network.node[0].content_store 	decision_yes[0] 	585
scalar tiger_cost_network.node[0].content_store 	decision_no[0] 	61720
scalar tiger_cost_network.node[0].content_store 	decision_ratio[0] 	0.0093892945991493
scalar tiger_cost_network.node[1].core_layer 	interests[1] 	111007
scalar tiger_cost_network.node[1].core_layer 	data[1] 	104382
scalar tiger_cost_network.node[1].content_store 	p_hit[1] 	0.059671912582089
scalar tiger_cost_network.node[1].content_store 	hits[1] 	6624
scalar tiger_cost_network.node[1].content_store 	misses[1] 	104383
scalar tiger_cost_network.node[1].content_store 	decision_yes[1] 	1039
scalar tiger_cost_network.node[1].content_store 	decision_no[1] 	103343
scalar tiger_cost_network.node[1].content_store 	decision_ratio[1] 	0.0099538234561514
scalar tiger_cost_network.node[2].core_layer 	interests[2] 	139840
scalar tiger_cost_network.node[2].core_layer 	repo_load[2] 	95720
scalar tiger_cost_network.node[2].core_layer 	data[2] 	37508
scalar tiger_cost_network.node[2].content_store 	p_hit[2] 	0.047275457665904
scalar tiger_cost_network.node[2].content_store 	hits[2] 	6611
scalar tiger_cost_network.node[2].content_store 	misses[2] 	133229
scalar tiger_cost_network.node[2].content_store 	decision_yes[2] 	1382
scalar tiger_cost_network.node[2].content_store 	decision_no[2] 	131846
scalar tiger_cost_network.node[2].content_store 	decision_ratio[2] 	0.010373194823911
scalar tiger_cost_network.node[3].core_layer 	interests[3] 	75718
scalar tiger_cost_network.node[3].core_layer 	data[3] 	71492
scalar tiger_cost_network.node[3].content_store 	p_hit[3] 	0.05581235637497
scalar tiger_cost_network.node[3].content_store 	hits[3] 	4226
scalar tiger_cost_network.node[3].content_store 	misses[3] 	71492
scalar tiger_cost_network.node[3].content_store 	decision_yes[3] 	687
scalar tiger_cost_network.node[3].content_store 	decision_no[3] 	70805
scalar tiger_cost_network.node[3].content_store 	decision_ratio[3] 	0.0096094667934874
scalar tiger_cost_network.node[4].core_layer 	interests[4] 	36035
scalar tiger_cost_network.node[4].core_layer 	data[4] 	34160
scalar tiger_cost_network.node[4].content_store 	p_hit[4] 	0.052032745941446
scalar tiger_cost_network.node[4].content_store 	hits[4] 	1875
scalar tiger_cost_network.node[4].content_store 	misses[4] 	34160
scalar tiger_cost_network.node[4].content_store 	decision_yes[4] 	350
scalar tiger_cost_network.node[4].content_store 	decision_no[4] 	33810
scalar tiger_cost_network.node[4].content_store 	decision_ratio[4] 	0.010245901639344
scalar tiger_cost_network.node[5].core_layer 	interests[5] 	0
scalar tiger_cost_network.node[5].core_layer 	data[5] 	0
scalar tiger_cost_network.node[5].content_store 	p_hit[5] 	-nan
scalar tiger_cost_network.node[5].content_store 	hits[5] 	0
scalar tiger_cost_network.node[5].content_store 	misses[5] 	0
scalar tiger_cost_network.node[5].content_store 	decision_yes[5] 	0
scalar tiger_cost_network.node[5].content_store 	decision_no[5] 	0
scalar tiger_cost_network.node[5].content_store 	decision_ratio[5] 	0
scalar tiger_cost_network.node[6].core_layer 	interests[6] 	179478
scalar tiger_cost_network.node[6].core_layer 	data[6] 	119874
scalar tiger_cost_network.node[6].content_store 	p_hit[6] 	0.33206855436321
scalar tiger_cost_network.node[6].content_store 	hits[6] 	59599
scalar tiger_cost_network.node[6].content_store 	misses[6] 	119879
scalar tiger_cost_network.node[6].content_store 	decision_yes[6] 	1216
scalar tiger_cost_network.node[6].content_store 	decision_no[6] 	118658
scalar tiger_cost_network.node[6].content_store 	decision_ratio[6] 	0.010143984517076
scalar tiger_cost_network.node[7].core_layer 	interests[7] 	38308
scalar tiger_cost_network.node[7].core_layer 	data[7] 	33190
scalar tiger_cost_network.node[7].content_store 	p_hit[7] 	0.13360133653545
scalar tiger_cost_network.node[7].content_store 	hits[7] 	5118
scalar tiger_cost_network.node[7].content_store 	misses[7] 	33190
scalar tiger_cost_network.node[7].content_store 	decision_yes[7] 	320
scalar tiger_cost_network.node[7].content_store 	decision_no[7] 	32870
scalar tiger_cost_network.node[7].content_store 	decision_ratio[7] 	0.0096414582705634
scalar tiger_cost_network.node[8].core_layer 	interests[8] 	33190
scalar tiger_cost_network.node[8].core_layer 	data[8] 	30918
scalar tiger_cost_network.node[8].content_store 	p_hit[8] 	0.068454353721
scalar tiger_cost_network.node[8].content_store 	hits[8] 	2272
scalar tiger_cost_network.node[8].content_store 	misses[8] 	30918
scalar tiger_cost_network.node[8].content_store 	decision_yes[8] 	300
scalar tiger_cost_network.node[8].content_store 	decision_no[8] 	30618
scalar tiger_cost_network.node[8].content_store 	decision_ratio[8] 	0.0097030855812148
scalar tiger_cost_network.node[9].core_layer 	interests[9] 	0
scalar tiger_cost_network.node[9].core_layer 	data[9] 	0
scalar tiger_cost_network.node[9].content_store 	p_hit[9] 	-nan
scalar tiger_cost_network.node[9].content_store 	hits[9] 	0
scalar tiger_cost_network.node[9].content_store 	misses[9] 	0
scalar tiger_cost_network.node[9].content_store 	decision_yes[9] 	0
scalar tiger_cost_network.node[9].content_store 	decision_no[9] 	0
scalar tiger_cost_network.node[9].content_store 	decision_ratio[9] 	0
scalar tiger_cost_network.node[10].core_layer 	interests[10] 	180211
scalar tiger_cost_network.node[10].core_layer 	data[10] 	120264
scalar tiger_cost_network.node[10].content_store 	p_hit[10] 	0.33261565609203
scalar tiger_cost_network.node[10].content_store 	hits[10] 	59941
scalar tiger_cost_network.node[10].content_store 	misses[10] 	120270
scalar tiger_cost_network.node[10].content_store 	decision_yes[10] 	1225
scalar tiger_cost_network.node[10].content_store 	decision_no[10] 	119039
scalar tiger_cost_network.node[10].content_store 	decision_ratio[10] 	0.010185924299874
scalar tiger_cost_network.node[11].core_layer 	interests[11] 	40176
scalar tiger_cost_network.node[11].core_layer 	data[11] 	34305
scalar tiger_cost_network.node[11].content_store 	p_hit[11] 	0.14613201911589
scalar tiger_cost_network.node[11].content_store 	hits[11] 	5871
scalar tiger_cost_network.node[11].content_store 	misses[11] 	34305
scalar tiger_cost_network.node[11].content_store 	decision_yes[11] 	351
scalar tiger_cost_network.node[11].content_store 	decision_no[11] 	33954
scalar tiger_cost_network.node[11].content_store 	decision_ratio[11] 	0.010231744643638
scalar tiger_cost_network.node[12].core_layer 	interests[12] 	34882
scalar tiger_cost_network.node[12].core_layer 	data[12] 	32029
scalar tiger_cost_network.node[12].content_store 	p_hit[12] 	0.081790034975059
scalar tiger_cost_network.node[12].content_store 	hits[12] 	2853
scalar tiger_cost_network.node[12].content_store 	misses[12] 	32029
scalar tiger_cost_network.node[12].content_store 	decision_yes[12] 	319
scalar tiger_cost_network.node[12].content_store 	decision_no[12] 	31710
scalar tiger_cost_network.node[12].content_store 	decision_ratio[12] 	0.0099597240001249
scalar tiger_cost_network.node[13].core_layer 	interests[13] 	40862
scalar tiger_cost_network.node[13].core_layer 	data[13] 	34882
scalar tiger_cost_network.node[13].content_store 	p_hit[13] 	0.14634623855905
scalar tiger_cost_network.node[13].content_store 	hits[13] 	5980
scalar tiger_cost_network.node[13].content_store 	misses[13] 	34882
scalar tiger_cost_network.node[13].content_store 	decision_yes[13] 	355
scalar tiger_cost_network.node[13].content_store 	decision_no[13] 	34527
scalar tiger_cost_network.node[13].content_store 	decision_ratio[13] 	0.010177168740325
scalar tiger_cost_network.node[14].core_layer 	interests[14] 	180670
scalar tiger_cost_network.node[14].core_layer 	data[14] 	120405
scalar tiger_cost_network.node[14].content_store 	p_hit[14] 	0.33355288647811
scalar tiger_cost_network.node[14].content_store 	hits[14] 	60263
scalar tiger_cost_network.node[14].content_store 	misses[14] 	120407
scalar tiger_cost_network.node[14].content_store 	decision_yes[14] 	1182
scalar tiger_cost_network.node[14].content_store 	decision_no[14] 	119223
scalar tiger_cost_network.node[14].content_store 	decision_ratio[14] 	0.0098168680702629
scalar tiger_cost_network.node[15].core_layer 	interests[15] 	41333
scalar tiger_cost_network.node[15].core_layer 	data[15] 	35660
scalar tiger_cost_network.node[15].content_store 	p_hit[15] 	0.13725110686377
scalar tiger_cost_network.node[15].content_store 	hits[15] 	5673
scalar tiger_cost_network.node[15].content_store 	misses[15] 	35660
scalar tiger_cost_network.node[15].content_store 	decision_yes[15] 	366
scalar tiger_cost_network.node[15].content_store 	decision_no[15] 	35294
scalar tiger_cost_network.node[15].content_store 	decision_ratio[15] 	0.010263600673023
scalar tiger_cost_network.node[16].core_layer 	interests[16] 	111755
scalar tiger_cost_network.node[16].core_layer 	repo_load[16] 	102249
scalar tiger_cost_network.node[16].core_layer 	data[16] 	0
scalar tiger_cost_network.node[16].content_store 	p_hit[16] 	0.085061071093016
scalar tiger_cost_network.node[16].content_store 	hits[16] 	9506
scalar tiger_cost_network.node[16].content_store 	misses[16] 	102249
scalar tiger_cost_network.node[16].content_store 	decision_yes[16] 	1044
scalar tiger_cost_network.node[16].content_store 	decision_no[16] 	101205
scalar tiger_cost_network.node[16].content_store 	decision_ratio[16] 	0.010210368805563
scalar tiger_cost_network.node[17].core_layer 	interests[17] 	39631
scalar tiger_cost_network.node[17].core_layer 	data[17] 	34297
scalar tiger_cost_network.node[17].content_store 	p_hit[17] 	0.13459160757992
scalar tiger_cost_network.node[17].content_store 	hits[17] 	5334
scalar tiger_cost_network.node[17].content_store 	misses[17] 	34297
scalar tiger_cost_network.node[17].content_store 	decision_yes[17] 	355
scalar tiger_cost_network.node[17].content_store 	decision_no[17] 	33942
scalar tiger_cost_network.node[17].content_store 	decision_ratio[17] 	0.010350759541651
scalar tiger_cost_network.node[18].core_layer 	interests[18] 	96602
scalar tiger_cost_network.node[18].core_layer 	repo_load[18] 	91768
scalar tiger_cost_network.node[18].core_layer 	data[18] 	0
scalar tiger_cost_network.node[18].content_store 	p_hit[18] 	0.050040371834952
scalar tiger_cost_network.node[18].content_store 	hits[18] 	4834
scalar tiger_cost_network.node[18].content_store 	misses[18] 	91768
scalar tiger_cost_network.node[18].content_store 	decision_yes[18] 	884
scalar tiger_cost_network.node[18].content_store 	decision_no[18] 	90884
scalar tiger_cost_network.node[18].content_store 	decision_ratio[18] 	0.0096329875337808
scalar tiger_cost_network.node[19].core_layer 	interests[19] 	0
scalar tiger_cost_network.node[19].core_layer 	data[19] 	0
scalar tiger_cost_network.node[19].content_store 	p_hit[19] 	-nan
scalar tiger_cost_network.node[19].content_store 	hits[19] 	0
scalar tiger_cost_network.node[19].content_store 	misses[19] 	0
scalar tiger_cost_network.node[19].content_store 	decision_yes[19] 	0
scalar tiger_cost_network.node[19].content_store 	decision_no[19] 	0
scalar tiger_cost_network.node[19].content_store 	decision_ratio[19] 	0
scalar tiger_cost_network.node[20].core_layer 	interests[20] 	0
scalar tiger_cost_network.node[20].core_layer 	data[20] 	0
scalar tiger_cost_network.node[20].content_store 	p_hit[20] 	-nan
scalar tiger_cost_network.node[20].content_store 	hits[20] 	0
scalar tiger_cost_network.node[20].content_store 	misses[20] 	0
scalar tiger_cost_network.node[20].content_store 	decision_yes[20] 	0
scalar tiger_cost_network.node[20].content_store 	decision_no[20] 	0
scalar tiger_cost_network.node[20].content_store 	decision_ratio[20] 	0
scalar tiger_cost_network.node[21].core_layer 	interests[21] 	0
scalar tiger_cost_network.node[21].core_layer 	data[21] 	0
scalar tiger_cost_network.node[21].content_store 	p_hit[21] 	-nan
scalar tiger_cost_network.node[21].content_store 	hits[21] 	0
scalar tiger_cost_network.node[21].content_store 	misses[21] 	0
scalar tiger_cost_network.node[21].content_store 	decision_yes[21] 	0
scalar tiger_cost_network.node[21].content_store 	decision_no[21] 	0
scalar tiger_cost_network.node[21].content_store 	decision_ratio[21] 	0
scalar tiger_cost_network.client[6] 	hdistance[6] 	1.9315941673678
scalar tiger_cost_network.client[6] 	downloads[6] 	179473
scalar tiger_cost_network.client[6] 	avg_time[6] 	0.000567777939
scalar tiger_cost_network.client[10] 	hdistance[10] 	2.5762548208984
scalar tiger_cost_network.client[10] 	downloads[10] 	180205
scalar tiger_cost_network.client[10] 	avg_time[10] 	0.000906744072
scalar tiger_cost_network.client[14] 	hdistance[14] 	2.1281300507007
scalar tiger_cost_network.client[14] 	downloads[14] 	180668
scalar tiger_cost_network.client[14] 	avg_time[14] 	0.000380170358
