version 2
run General-8-20140930-16:34:39-19754
attr D fix0.01
attr F spr
attr R lru
attr a 1
attr configname General
attr csize 1e3
attr ctlg 1e5
attr datetime 20140930-16:34:39
attr experiment General
attr inifile omnetpp.ini
attr iterationvars "$net=tiger_cost, $rep=8, $priceratiovalue=10, $weights=0.333_0.333_0.334, $lambda=100, $a=1, $ctlg=1e5, $F=spr, $ttl=10, $D=fix0.01, $xi=1, $R=lru, $csize=1e3, $pricebits=0, $window=60, $variance=0.05, $mytime=1800"
attr iterationvars2 "$net=tiger_cost, $rep=8, $priceratiovalue=10, $weights=0.333_0.333_0.334, $lambda=100, $a=1, $ctlg=1e5, $F=spr, $ttl=10, $D=fix0.01, $xi=1, $R=lru, $csize=1e3, $pricebits=0, $window=60, $variance=0.05, $mytime=1800, $repetition=0"
attr lambda 100
attr measurement "$net=tiger_cost, $rep=8, $priceratiovalue=10, $weights=0.333_0.333_0.334, $lambda=100, $a=1, $ctlg=1e5, $F=spr, $ttl=10, $D=fix0.01, $xi=1, $R=lru, $csize=1e3, $pricebits=0, $window=60, $variance=0.05, $mytime=1800"
attr mytime 1800
attr net tiger_cost
attr network networks.${net=level3_cost,tiger_cost,dtelecom_cost}_network
attr pricebits 0
attr priceratiovalue 10
attr processid 19754
attr rep 8
attr repetition 0
attr replication #0
attr resultdir results
attr runnumber 8
attr seedset 8
attr ttl 10
attr variance 0.05
attr weights 0.333_0.333_0.334
attr window 60
attr xi 1

scalar . 	a 	1
scalar . 	csize 	1e3
scalar . 	ctlg 	1e5
scalar . 	lambda 	100
scalar . 	mytime 	1800
scalar . 	pricebits 	0
scalar . 	priceratiovalue 	10
scalar . 	rep 	8
scalar . 	ttl 	10
scalar . 	variance 	0.05
scalar . 	window 	60
scalar . 	xi 	1
scalar tiger_cost_network.content_distribution 	repo-0 	4
scalar tiger_cost_network.content_distribution 	repo-1 	15
scalar tiger_cost_network.content_distribution 	repo-2 	12
scalar tiger_cost_network.content_distribution 	client-0 	8
scalar tiger_cost_network.content_distribution 	client-1 	4
scalar tiger_cost_network.content_distribution 	client-2 	20
scalar tiger_cost_network.content_distribution 	repo-0_card 	33476
scalar tiger_cost_network.content_distribution 	repo-0_price 	1
scalar tiger_cost_network.content_distribution 	repo-1_card 	33258
scalar tiger_cost_network.content_distribution 	repo-1_price 	0
scalar tiger_cost_network.content_distribution 	repo-2_card 	33266
scalar tiger_cost_network.content_distribution 	repo-2_price 	10
scalar tiger_cost_network.statistics 	repo_popularity[0] 	0.27308552772926
scalar tiger_cost_network.statistics 	repo_popularity[1] 	0.42673410384757
scalar tiger_cost_network.statistics 	repo_popularity[2] 	0.30018036842319
scalar tiger_cost_network.statistics 	stabilization_time 	36060
scalar tiger_cost_network.statistics 	p_hit 	0.15941745232287
scalar tiger_cost_network.statistics 	interests 	68255.045454545
scalar tiger_cost_network.statistics 	data 	43769.545454545
scalar tiger_cost_network.statistics 	hdistance 	2.3444617656889
scalar tiger_cost_network.statistics 	avg_time 	0.000823512236
scalar tiger_cost_network.statistics 	downloads 	538670
scalar tiger_cost_network.statistics 	total_cost 	1059374
scalar tiger_cost_network.statistics 	total_replicas 	100000
scalar tiger_cost_network.statistics 	inner_hit 	0.44439638368574
scalar tiger_cost_network.node[0].core_layer 	interests[0] 	35702
scalar tiger_cost_network.node[0].core_layer 	data[0] 	32710
scalar tiger_cost_network.node[0].core_layer 	repo_int[0] 	299287
scalar tiger_cost_network.node[0].content_store 	p_hit[0] 	0.083804828861128
scalar tiger_cost_network.node[0].content_store 	hits[0] 	2992
scalar tiger_cost_network.node[0].content_store 	misses[0] 	32710
scalar tiger_cost_network.node[0].content_store 	decision_yes[0] 	327
scalar tiger_cost_network.node[0].content_store 	decision_no[0] 	32383
scalar tiger_cost_network.node[0].content_store 	decision_ratio[0] 	0.0099969428309386
scalar tiger_cost_network.node[1].core_layer 	interests[1] 	119291
scalar tiger_cost_network.node[1].core_layer 	data[1] 	112170
scalar tiger_cost_network.node[1].content_store 	p_hit[1] 	0.059694360848681
scalar tiger_cost_network.node[1].content_store 	hits[1] 	7121
scalar tiger_cost_network.node[1].content_store 	misses[1] 	112170
scalar tiger_cost_network.node[1].content_store 	decision_yes[1] 	1149
scalar tiger_cost_network.node[1].content_store 	decision_no[1] 	111021
scalar tiger_cost_network.node[1].content_store 	decision_ratio[1] 	0.010243380583044
scalar tiger_cost_network.node[2].core_layer 	interests[2] 	150289
scalar tiger_cost_network.node[2].core_layer 	data[2] 	143501
scalar tiger_cost_network.node[2].content_store 	p_hit[2] 	0.045166312903805
scalar tiger_cost_network.node[2].content_store 	hits[2] 	6788
scalar tiger_cost_network.node[2].content_store 	misses[2] 	143501
scalar tiger_cost_network.node[2].content_store 	decision_yes[2] 	1409
scalar tiger_cost_network.node[2].content_store 	decision_no[2] 	142092
scalar tiger_cost_network.node[2].content_store 	decision_ratio[2] 	0.0098187469076871
scalar tiger_cost_network.node[3].core_layer 	interests[3] 	157923
scalar tiger_cost_network.node[3].core_layer 	data[3] 	147575
scalar tiger_cost_network.node[3].content_store 	p_hit[3] 	0.065525604250173
scalar tiger_cost_network.node[3].content_store 	hits[3] 	10348
scalar tiger_cost_network.node[3].content_store 	misses[3] 	147575
scalar tiger_cost_network.node[3].content_store 	decision_yes[3] 	1411
scalar tiger_cost_network.node[3].content_store 	decision_no[3] 	146164
scalar tiger_cost_network.node[3].content_store 	decision_ratio[3] 	0.0095612400474335
scalar tiger_cost_network.node[4].core_layer 	interests[4] 	249126
scalar tiger_cost_network.node[4].core_layer 	repo_load[4] 	105994
scalar tiger_cost_network.node[4].core_layer 	data[4] 	83942
scalar tiger_cost_network.node[4].content_store 	p_hit[4] 	0.2375825887302
scalar tiger_cost_network.node[4].content_store 	hits[4] 	59188
scalar tiger_cost_network.node[4].content_store 	misses[4] 	189938
scalar tiger_cost_network.node[4].content_store 	decision_yes[4] 	1863
scalar tiger_cost_network.node[4].content_store 	decision_no[4] 	188073
scalar tiger_cost_network.node[4].content_store 	decision_ratio[4] 	0.0098085670962851
scalar tiger_cost_network.node[5].core_layer 	interests[5] 	0
scalar tiger_cost_network.node[5].core_layer 	data[5] 	0
scalar tiger_cost_network.node[5].content_store 	p_hit[5] 	-nan
scalar tiger_cost_network.node[5].content_store 	hits[5] 	0
scalar tiger_cost_network.node[5].content_store 	misses[5] 	0
scalar tiger_cost_network.node[5].content_store 	decision_yes[5] 	0
scalar tiger_cost_network.node[5].content_store 	decision_no[5] 	0
scalar tiger_cost_network.node[5].content_store 	decision_ratio[5] 	0
scalar tiger_cost_network.node[6].core_layer 	interests[6] 	35272
scalar tiger_cost_network.node[6].core_layer 	data[6] 	32839
scalar tiger_cost_network.node[6].content_store 	p_hit[6] 	0.068978226355183
scalar tiger_cost_network.node[6].content_store 	hits[6] 	2433
scalar tiger_cost_network.node[6].content_store 	misses[6] 	32839
scalar tiger_cost_network.node[6].content_store 	decision_yes[6] 	362
scalar tiger_cost_network.node[6].content_store 	decision_no[6] 	32477
scalar tiger_cost_network.node[6].content_store 	decision_ratio[6] 	0.011023478181431
scalar tiger_cost_network.node[7].core_layer 	interests[7] 	42467
scalar tiger_cost_network.node[7].core_layer 	data[7] 	35272
scalar tiger_cost_network.node[7].content_store 	p_hit[7] 	0.16942567169802
scalar tiger_cost_network.node[7].content_store 	hits[7] 	7195
scalar tiger_cost_network.node[7].content_store 	misses[7] 	35272
scalar tiger_cost_network.node[7].content_store 	decision_yes[7] 	353
scalar tiger_cost_network.node[7].content_store 	decision_no[7] 	34919
scalar tiger_cost_network.node[7].content_store 	decision_ratio[7] 	0.010007938308006
scalar tiger_cost_network.node[8].core_layer 	interests[8] 	179115
scalar tiger_cost_network.node[8].core_layer 	data[8] 	119291
scalar tiger_cost_network.node[8].content_store 	p_hit[8] 	0.33396421293582
scalar tiger_cost_network.node[8].content_store 	hits[8] 	59818
scalar tiger_cost_network.node[8].content_store 	misses[8] 	119297
scalar tiger_cost_network.node[8].content_store 	decision_yes[8] 	1179
scalar tiger_cost_network.node[8].content_store 	decision_no[8] 	118112
scalar tiger_cost_network.node[8].content_store 	decision_ratio[8] 	0.0098833943885121
scalar tiger_cost_network.node[9].core_layer 	interests[9] 	0
scalar tiger_cost_network.node[9].core_layer 	data[9] 	0
scalar tiger_cost_network.node[9].content_store 	p_hit[9] 	-nan
scalar tiger_cost_network.node[9].content_store 	hits[9] 	0
scalar tiger_cost_network.node[9].content_store 	misses[9] 	0
scalar tiger_cost_network.node[9].content_store 	decision_yes[9] 	0
scalar tiger_cost_network.node[9].content_store 	decision_no[9] 	0
scalar tiger_cost_network.node[9].content_store 	decision_ratio[9] 	0
scalar tiger_cost_network.node[10].core_layer 	interests[10] 	0
scalar tiger_cost_network.node[10].core_layer 	data[10] 	0
scalar tiger_cost_network.node[10].content_store 	p_hit[10] 	-nan
scalar tiger_cost_network.node[10].content_store 	hits[10] 	0
scalar tiger_cost_network.node[10].content_store 	misses[10] 	0
scalar tiger_cost_network.node[10].content_store 	decision_yes[10] 	0
scalar tiger_cost_network.node[10].content_store 	decision_no[10] 	0
scalar tiger_cost_network.node[10].content_store 	decision_ratio[10] 	0
scalar tiger_cost_network.node[11].core_layer 	interests[11] 	0
scalar tiger_cost_network.node[11].core_layer 	data[11] 	0
scalar tiger_cost_network.node[11].content_store 	p_hit[11] 	-nan
scalar tiger_cost_network.node[11].content_store 	hits[11] 	0
scalar tiger_cost_network.node[11].content_store 	misses[11] 	0
scalar tiger_cost_network.node[11].content_store 	decision_yes[11] 	0
scalar tiger_cost_network.node[11].content_store 	decision_no[11] 	0
scalar tiger_cost_network.node[11].content_store 	decision_ratio[11] 	0
scalar tiger_cost_network.node[12].core_layer 	interests[12] 	102230
scalar tiger_cost_network.node[12].core_layer 	repo_load[12] 	95338
scalar tiger_cost_network.node[12].core_layer 	data[12] 	0
scalar tiger_cost_network.node[12].content_store 	p_hit[12] 	0.067416609605791
scalar tiger_cost_network.node[12].content_store 	hits[12] 	6892
scalar tiger_cost_network.node[12].content_store 	misses[12] 	95338
scalar tiger_cost_network.node[12].content_store 	decision_yes[12] 	925
scalar tiger_cost_network.node[12].content_store 	decision_no[12] 	94413
scalar tiger_cost_network.node[12].content_store 	decision_ratio[12] 	0.0097023222639451
scalar tiger_cost_network.node[13].core_layer 	interests[13] 	0
scalar tiger_cost_network.node[13].core_layer 	data[13] 	0
scalar tiger_cost_network.node[13].content_store 	p_hit[13] 	-nan
scalar tiger_cost_network.node[13].content_store 	hits[13] 	0
scalar tiger_cost_network.node[13].content_store 	misses[13] 	0
scalar tiger_cost_network.node[13].content_store 	decision_yes[13] 	0
scalar tiger_cost_network.node[13].content_store 	decision_no[13] 	0
scalar tiger_cost_network.node[13].content_store 	decision_ratio[13] 	0
scalar tiger_cost_network.node[14].core_layer 	interests[14] 	0
scalar tiger_cost_network.node[14].core_layer 	data[14] 	0
scalar tiger_cost_network.node[14].content_store 	p_hit[14] 	-nan
scalar tiger_cost_network.node[14].content_store 	hits[14] 	0
scalar tiger_cost_network.node[14].content_store 	misses[14] 	0
scalar tiger_cost_network.node[14].content_store 	decision_yes[14] 	0
scalar tiger_cost_network.node[14].content_store 	decision_no[14] 	0
scalar tiger_cost_network.node[14].content_store 	decision_ratio[14] 	0
scalar tiger_cost_network.node[15].core_layer 	interests[15] 	104766
scalar tiger_cost_network.node[15].core_layer 	repo_load[15] 	97955
scalar tiger_cost_network.node[15].core_layer 	data[15] 	0
scalar tiger_cost_network.node[15].content_store 	p_hit[15] 	0.065011549548518
scalar tiger_cost_network.node[15].content_store 	hits[15] 	6811
scalar tiger_cost_network.node[15].content_store 	misses[15] 	97955
scalar tiger_cost_network.node[15].content_store 	decision_yes[15] 	966
scalar tiger_cost_network.node[15].content_store 	decision_no[15] 	96989
scalar tiger_cost_network.node[15].content_store 	decision_ratio[15] 	0.0098616711755398
scalar tiger_cost_network.node[16].core_layer 	interests[16] 	32839
scalar tiger_cost_network.node[16].core_layer 	data[16] 	31264
scalar tiger_cost_network.node[16].content_store 	p_hit[16] 	0.047961265568379
scalar tiger_cost_network.node[16].content_store 	hits[16] 	1575
scalar tiger_cost_network.node[16].content_store 	misses[16] 	31264
scalar tiger_cost_network.node[16].content_store 	decision_yes[16] 	326
scalar tiger_cost_network.node[16].content_store 	decision_no[16] 	30938
scalar tiger_cost_network.node[16].content_store 	decision_ratio[16] 	0.010427328556807
scalar tiger_cost_network.node[17].core_layer 	interests[17] 	35701
scalar tiger_cost_network.node[17].core_layer 	data[17] 	32985
scalar tiger_cost_network.node[17].content_store 	p_hit[17] 	0.076076300383743
scalar tiger_cost_network.node[17].content_store 	hits[17] 	2716
scalar tiger_cost_network.node[17].content_store 	misses[17] 	32985
scalar tiger_cost_network.node[17].content_store 	decision_yes[17] 	343
scalar tiger_cost_network.node[17].content_store 	decision_no[17] 	32642
scalar tiger_cost_network.node[17].content_store 	decision_ratio[17] 	0.01039866606033
scalar tiger_cost_network.node[18].core_layer 	interests[18] 	77511
scalar tiger_cost_network.node[18].core_layer 	data[18] 	71403
scalar tiger_cost_network.node[18].content_store 	p_hit[18] 	0.078801718465766
scalar tiger_cost_network.node[18].content_store 	hits[18] 	6108
scalar tiger_cost_network.node[18].content_store 	misses[18] 	71403
scalar tiger_cost_network.node[18].content_store 	decision_yes[18] 	700
scalar tiger_cost_network.node[18].content_store 	decision_no[18] 	70703
scalar tiger_cost_network.node[18].content_store 	decision_ratio[18] 	0.009803509656457
scalar tiger_cost_network.node[19].core_layer 	interests[19] 	0
scalar tiger_cost_network.node[19].core_layer 	data[19] 	0
scalar tiger_cost_network.node[19].content_store 	p_hit[19] 	-nan
scalar tiger_cost_network.node[19].content_store 	hits[19] 	0
scalar tiger_cost_network.node[19].content_store 	misses[19] 	0
scalar tiger_cost_network.node[19].content_store 	decision_yes[19] 	0
scalar tiger_cost_network.node[19].content_store 	decision_no[19] 	0
scalar tiger_cost_network.node[19].content_store 	decision_ratio[19] 	0
scalar tiger_cost_network.node[20].core_layer 	interests[20] 	179379
scalar tiger_cost_network.node[20].core_layer 	data[20] 	119978
scalar tiger_cost_network.node[20].content_store 	p_hit[20] 	0.33113129184576
scalar tiger_cost_network.node[20].content_store 	hits[20] 	59398
scalar tiger_cost_network.node[20].content_store 	misses[20] 	119981
scalar tiger_cost_network.node[20].content_store 	decision_yes[20] 	1127
scalar tiger_cost_network.node[20].content_store 	decision_no[20] 	118851
scalar tiger_cost_network.node[20].content_store 	decision_ratio[20] 	0.0093933887879445
scalar tiger_cost_network.node[21].core_layer 	interests[21] 	0
scalar tiger_cost_network.node[21].core_layer 	data[21] 	0
scalar tiger_cost_network.node[21].content_store 	p_hit[21] 	-nan
scalar tiger_cost_network.node[21].content_store 	hits[21] 	0
scalar tiger_cost_network.node[21].content_store 	misses[21] 	0
scalar tiger_cost_network.node[21].content_store 	decision_yes[21] 	0
scalar tiger_cost_network.node[21].content_store 	decision_no[21] 	0
scalar tiger_cost_network.node[21].content_store 	decision_ratio[21] 	0
scalar tiger_cost_network.client[4] 	hdistance[4] 	1.6778311180176
scalar tiger_cost_network.client[4] 	downloads[4] 	180185
scalar tiger_cost_network.client[4] 	avg_time[4] 	0.000738195708
scalar tiger_cost_network.client[8] 	hdistance[8] 	2.849761876846
scalar tiger_cost_network.client[8] 	downloads[8] 	179109
scalar tiger_cost_network.client[8] 	avg_time[8] 	0.001174050727
scalar tiger_cost_network.client[20] 	hdistance[20] 	2.5057923022032
scalar tiger_cost_network.client[20] 	downloads[20] 	179376
scalar tiger_cost_network.client[20] 	avg_time[20] 	0.000558290275
