version 2
run General-14-20140930-18:40:18-19940
attr D fix0.01
attr F spr
attr R lru
attr a 1
attr configname General
attr csize 1e3
attr ctlg 1e5
attr datetime 20140930-18:40:18
attr experiment General
attr inifile omnetpp.ini
attr iterationvars "$net=tiger_cost, $rep=5, $priceratiovalue=10, $weights=0.333_0.333_0.334, $lambda=100, $a=1, $ctlg=1e5, $F=spr, $ttl=10, $D=fix0.01, $xi=1, $R=lru, $csize=1e3, $pricebits=0, $window=60, $variance=0.05, $mytime=1800"
attr iterationvars2 "$net=tiger_cost, $rep=5, $priceratiovalue=10, $weights=0.333_0.333_0.334, $lambda=100, $a=1, $ctlg=1e5, $F=spr, $ttl=10, $D=fix0.01, $xi=1, $R=lru, $csize=1e3, $pricebits=0, $window=60, $variance=0.05, $mytime=1800, $repetition=0"
attr lambda 100
attr measurement "$net=tiger_cost, $rep=5, $priceratiovalue=10, $weights=0.333_0.333_0.334, $lambda=100, $a=1, $ctlg=1e5, $F=spr, $ttl=10, $D=fix0.01, $xi=1, $R=lru, $csize=1e3, $pricebits=0, $window=60, $variance=0.05, $mytime=1800"
attr mytime 1800
attr net tiger_cost
attr network networks.${net=tiger_cost,dtelecom_cost}_network
attr pricebits 0
attr priceratiovalue 10
attr processid 19940
attr rep 5
attr repetition 0
attr replication #0
attr resultdir results
attr runnumber 14
attr seedset 5
attr ttl 10
attr variance 0.05
attr weights 0.333_0.333_0.334
attr window 60
attr xi 1

scalar . 	a 	1
scalar . 	csize 	1e3
scalar . 	ctlg 	1e5
scalar . 	lambda 	100
scalar . 	mytime 	1800
scalar . 	pricebits 	0
scalar . 	priceratiovalue 	10
scalar . 	rep 	5
scalar . 	ttl 	10
scalar . 	variance 	0.05
scalar . 	window 	60
scalar . 	xi 	1
scalar tiger_cost_network.content_distribution 	repo-0 	9
scalar tiger_cost_network.content_distribution 	repo-1 	14
scalar tiger_cost_network.content_distribution 	repo-2 	5
scalar tiger_cost_network.content_distribution 	client-0 	4
scalar tiger_cost_network.content_distribution 	client-1 	9
scalar tiger_cost_network.content_distribution 	client-2 	0
scalar tiger_cost_network.content_distribution 	repo-0_card 	33098
scalar tiger_cost_network.content_distribution 	repo-0_price 	0
scalar tiger_cost_network.content_distribution 	repo-1_card 	33495
scalar tiger_cost_network.content_distribution 	repo-1_price 	10
scalar tiger_cost_network.content_distribution 	repo-2_card 	33407
scalar tiger_cost_network.content_distribution 	repo-2_price 	1
scalar tiger_cost_network.statistics 	repo_popularity[0] 	0.31037770261398
scalar tiger_cost_network.statistics 	repo_popularity[1] 	0.29913869324176
scalar tiger_cost_network.statistics 	repo_popularity[2] 	0.39048360414427
scalar tiger_cost_network.statistics 	stabilization_time 	36060
scalar tiger_cost_network.statistics 	p_hit 	0.16437985476794
scalar tiger_cost_network.statistics 	interests 	67190.272727273
scalar tiger_cost_network.statistics 	data 	42655.318181818
scalar tiger_cost_network.statistics 	hdistance 	2.2882973689328
scalar tiger_cost_network.statistics 	avg_time 	0.000751189883
scalar tiger_cost_network.statistics 	downloads 	539761
scalar tiger_cost_network.statistics 	total_cost 	1050602
scalar tiger_cost_network.statistics 	total_replicas 	100000
scalar tiger_cost_network.statistics 	inner_hit 	0.4501696121061
scalar tiger_cost_network.node[0].core_layer 	interests[0] 	179979
scalar tiger_cost_network.node[0].core_layer 	data[0] 	119750
scalar tiger_cost_network.node[0].core_layer 	repo_int[0] 	296777
scalar tiger_cost_network.node[0].content_store 	p_hit[0] 	0.33464459742526
scalar tiger_cost_network.node[0].content_store 	hits[0] 	60229
scalar tiger_cost_network.node[0].content_store 	misses[0] 	119750
scalar tiger_cost_network.node[0].content_store 	decision_yes[0] 	1194
scalar tiger_cost_network.node[0].content_store 	decision_no[0] 	118556
scalar tiger_cost_network.node[0].content_store 	decision_ratio[0] 	0.0099707724425887
scalar tiger_cost_network.node[1].core_layer 	interests[1] 	71942
scalar tiger_cost_network.node[1].core_layer 	data[1] 	68532
scalar tiger_cost_network.node[1].content_store 	p_hit[1] 	0.047399293875622
scalar tiger_cost_network.node[1].content_store 	hits[1] 	3410
scalar tiger_cost_network.node[1].content_store 	misses[1] 	68532
scalar tiger_cost_network.node[1].content_store 	decision_yes[1] 	650
scalar tiger_cost_network.node[1].content_store 	decision_no[1] 	67882
scalar tiger_cost_network.node[1].content_store 	decision_ratio[1] 	0.0094846203233526
scalar tiger_cost_network.node[2].core_layer 	interests[2] 	71452
scalar tiger_cost_network.node[2].core_layer 	data[2] 	68382
scalar tiger_cost_network.node[2].content_store 	p_hit[2] 	0.042965907182444
scalar tiger_cost_network.node[2].content_store 	hits[2] 	3070
scalar tiger_cost_network.node[2].content_store 	misses[2] 	68382
scalar tiger_cost_network.node[2].content_store 	decision_yes[2] 	650
scalar tiger_cost_network.node[2].content_store 	decision_no[2] 	67732
scalar tiger_cost_network.node[2].content_store 	decision_ratio[2] 	0.0095054254043462
scalar tiger_cost_network.node[3].core_layer 	interests[3] 	112419
scalar tiger_cost_network.node[3].core_layer 	data[3] 	105386
scalar tiger_cost_network.node[3].content_store 	p_hit[3] 	0.06256059918697
scalar tiger_cost_network.node[3].content_store 	hits[3] 	7033
scalar tiger_cost_network.node[3].content_store 	misses[3] 	105386
scalar tiger_cost_network.node[3].content_store 	decision_yes[3] 	1078
scalar tiger_cost_network.node[3].content_store 	decision_no[3] 	104308
scalar tiger_cost_network.node[3].content_store 	decision_ratio[3] 	0.010229062683848
scalar tiger_cost_network.node[4].core_layer 	interests[4] 	179540
scalar tiger_cost_network.node[4].core_layer 	data[4] 	119008
scalar tiger_cost_network.node[4].content_store 	p_hit[4] 	0.33713378634288
scalar tiger_cost_network.node[4].content_store 	hits[4] 	60529
scalar tiger_cost_network.node[4].content_store 	misses[4] 	119011
scalar tiger_cost_network.node[4].content_store 	decision_yes[4] 	1187
scalar tiger_cost_network.node[4].content_store 	decision_no[4] 	117821
scalar tiger_cost_network.node[4].content_store 	decision_ratio[4] 	0.009974119386932
scalar tiger_cost_network.node[5].core_layer 	interests[5] 	105140
scalar tiger_cost_network.node[5].core_layer 	repo_load[5] 	97842
scalar tiger_cost_network.node[5].core_layer 	data[5] 	0
scalar tiger_cost_network.node[5].content_store 	p_hit[5] 	0.069412212288377
scalar tiger_cost_network.node[5].content_store 	hits[5] 	7298
scalar tiger_cost_network.node[5].content_store 	misses[5] 	97842
scalar tiger_cost_network.node[5].content_store 	decision_yes[5] 	957
scalar tiger_cost_network.node[5].content_store 	decision_no[5] 	96885
scalar tiger_cost_network.node[5].content_store 	decision_ratio[5] 	0.0097810756117005
scalar tiger_cost_network.node[6].core_layer 	interests[6] 	34861
scalar tiger_cost_network.node[6].core_layer 	data[6] 	32385
scalar tiger_cost_network.node[6].content_store 	p_hit[6] 	0.07102492756949
scalar tiger_cost_network.node[6].content_store 	hits[6] 	2476
scalar tiger_cost_network.node[6].content_store 	misses[6] 	32385
scalar tiger_cost_network.node[6].content_store 	decision_yes[6] 	300
scalar tiger_cost_network.node[6].content_store 	decision_no[6] 	32085
scalar tiger_cost_network.node[6].content_store 	decision_ratio[6] 	0.0092635479388606
scalar tiger_cost_network.node[7].core_layer 	interests[7] 	38648
scalar tiger_cost_network.node[7].core_layer 	data[7] 	34861
scalar tiger_cost_network.node[7].content_store 	p_hit[7] 	0.097986959221693
scalar tiger_cost_network.node[7].content_store 	hits[7] 	3787
scalar tiger_cost_network.node[7].content_store 	misses[7] 	34861
scalar tiger_cost_network.node[7].content_store 	decision_yes[7] 	356
scalar tiger_cost_network.node[7].content_store 	decision_no[7] 	34505
scalar tiger_cost_network.node[7].content_store 	decision_ratio[7] 	0.010211984739394
scalar tiger_cost_network.node[8].core_layer 	interests[8] 	115781
scalar tiger_cost_network.node[8].core_layer 	data[8] 	109158
scalar tiger_cost_network.node[8].content_store 	p_hit[8] 	0.057202822570197
scalar tiger_cost_network.node[8].content_store 	hits[8] 	6623
scalar tiger_cost_network.node[8].content_store 	misses[8] 	109158
scalar tiger_cost_network.node[8].content_store 	decision_yes[8] 	1086
scalar tiger_cost_network.node[8].content_store 	decision_no[8] 	108072
scalar tiger_cost_network.node[8].content_store 	decision_ratio[8] 	0.0099488814379157
scalar tiger_cost_network.node[9].core_layer 	interests[9] 	245152
scalar tiger_cost_network.node[9].core_layer 	repo_load[9] 	103659
scalar tiger_cost_network.node[9].core_layer 	data[9] 	82250
scalar tiger_cost_network.node[9].content_store 	p_hit[9] 	0.24163784101292
scalar tiger_cost_network.node[9].content_store 	hits[9] 	59238
scalar tiger_cost_network.node[9].content_store 	misses[9] 	185914
scalar tiger_cost_network.node[9].content_store 	decision_yes[9] 	1844
scalar tiger_cost_network.node[9].content_store 	decision_no[9] 	184065
scalar tiger_cost_network.node[9].content_store 	decision_ratio[9] 	0.0099188312561522
scalar tiger_cost_network.node[10].core_layer 	interests[10] 	33681
scalar tiger_cost_network.node[10].core_layer 	data[10] 	31813
scalar tiger_cost_network.node[10].content_store 	p_hit[10] 	0.055461536177667
scalar tiger_cost_network.node[10].content_store 	hits[10] 	1868
scalar tiger_cost_network.node[10].content_store 	misses[10] 	31813
scalar tiger_cost_network.node[10].content_store 	decision_yes[10] 	309
scalar tiger_cost_network.node[10].content_store 	decision_no[10] 	31504
scalar tiger_cost_network.node[10].content_store 	decision_ratio[10] 	0.0097130104045516
scalar tiger_cost_network.node[11].core_layer 	interests[11] 	39789
scalar tiger_cost_network.node[11].core_layer 	data[11] 	33681
scalar tiger_cost_network.node[11].content_store 	p_hit[11] 	0.15350976400513
scalar tiger_cost_network.node[11].content_store 	hits[11] 	6108
scalar tiger_cost_network.node[11].content_store 	misses[11] 	33681
scalar tiger_cost_network.node[11].content_store 	decision_yes[11] 	334
scalar tiger_cost_network.node[11].content_store 	decision_no[11] 	33347
scalar tiger_cost_network.node[11].content_store 	decision_ratio[11] 	0.0099165701730946
scalar tiger_cost_network.node[12].core_layer 	interests[12] 	39478
scalar tiger_cost_network.node[12].core_layer 	data[12] 	34081
scalar tiger_cost_network.node[12].content_store 	p_hit[12] 	0.13670905314352
scalar tiger_cost_network.node[12].content_store 	hits[12] 	5397
scalar tiger_cost_network.node[12].content_store 	misses[12] 	34081
scalar tiger_cost_network.node[12].content_store 	decision_yes[12] 	361
scalar tiger_cost_network.node[12].content_store 	decision_no[12] 	33720
scalar tiger_cost_network.node[12].content_store 	decision_ratio[12] 	0.010592412194478
scalar tiger_cost_network.node[13].core_layer 	interests[13] 	34081
scalar tiger_cost_network.node[13].core_layer 	data[13] 	31656
scalar tiger_cost_network.node[13].content_store 	p_hit[13] 	0.071154015433819
scalar tiger_cost_network.node[13].content_store 	hits[13] 	2425
scalar tiger_cost_network.node[13].content_store 	misses[13] 	31656
scalar tiger_cost_network.node[13].content_store 	decision_yes[13] 	292
scalar tiger_cost_network.node[13].content_store 	decision_no[13] 	31364
scalar tiger_cost_network.node[13].content_store 	decision_ratio[13] 	0.0092241597169573
scalar tiger_cost_network.node[14].core_layer 	interests[14] 	100591
scalar tiger_cost_network.node[14].core_layer 	repo_load[14] 	95276
scalar tiger_cost_network.node[14].core_layer 	data[14] 	0
scalar tiger_cost_network.node[14].content_store 	p_hit[14] 	0.052837729021483
scalar tiger_cost_network.node[14].content_store 	hits[14] 	5315
scalar tiger_cost_network.node[14].content_store 	misses[14] 	95276
scalar tiger_cost_network.node[14].content_store 	decision_yes[14] 	953
scalar tiger_cost_network.node[14].content_store 	decision_no[14] 	94323
scalar tiger_cost_network.node[14].content_store 	decision_ratio[14] 	0.010002518997439
scalar tiger_cost_network.node[15].core_layer 	interests[15] 	0
scalar tiger_cost_network.node[15].core_layer 	data[15] 	0
scalar tiger_cost_network.node[15].content_store 	p_hit[15] 	-nan
scalar tiger_cost_network.node[15].content_store 	hits[15] 	0
scalar tiger_cost_network.node[15].content_store 	misses[15] 	0
scalar tiger_cost_network.node[15].content_store 	decision_yes[15] 	0
scalar tiger_cost_network.node[15].content_store 	decision_no[15] 	0
scalar tiger_cost_network.node[15].content_store 	decision_ratio[15] 	0
scalar tiger_cost_network.node[16].core_layer 	interests[16] 	0
scalar tiger_cost_network.node[16].core_layer 	data[16] 	0
scalar tiger_cost_network.node[16].content_store 	p_hit[16] 	-nan
scalar tiger_cost_network.node[16].content_store 	hits[16] 	0
scalar tiger_cost_network.node[16].content_store 	misses[16] 	0
scalar tiger_cost_network.node[16].content_store 	decision_yes[16] 	0
scalar tiger_cost_network.node[16].content_store 	decision_no[16] 	0
scalar tiger_cost_network.node[16].content_store 	decision_ratio[16] 	0
scalar tiger_cost_network.node[17].core_layer 	interests[17] 	35169
scalar tiger_cost_network.node[17].core_layer 	data[17] 	32305
scalar tiger_cost_network.node[17].content_store 	p_hit[17] 	0.081435355000142
scalar tiger_cost_network.node[17].content_store 	hits[17] 	2864
scalar tiger_cost_network.node[17].content_store 	misses[17] 	32305
scalar tiger_cost_network.node[17].content_store 	decision_yes[17] 	303
scalar tiger_cost_network.node[17].content_store 	decision_no[17] 	32002
scalar tiger_cost_network.node[17].content_store 	decision_ratio[17] 	0.0093793530413249
scalar tiger_cost_network.node[18].core_layer 	interests[18] 	40483
scalar tiger_cost_network.node[18].core_layer 	data[18] 	35169
scalar tiger_cost_network.node[18].content_store 	p_hit[18] 	0.13126497542178
scalar tiger_cost_network.node[18].content_store 	hits[18] 	5314
scalar tiger_cost_network.node[18].content_store 	misses[18] 	35169
scalar tiger_cost_network.node[18].content_store 	decision_yes[18] 	395
scalar tiger_cost_network.node[18].content_store 	decision_no[18] 	34774
scalar tiger_cost_network.node[18].content_store 	decision_ratio[18] 	0.011231482271318
scalar tiger_cost_network.node[19].core_layer 	interests[19] 	0
scalar tiger_cost_network.node[19].core_layer 	data[19] 	0
scalar tiger_cost_network.node[19].content_store 	p_hit[19] 	-nan
scalar tiger_cost_network.node[19].content_store 	hits[19] 	0
scalar tiger_cost_network.node[19].content_store 	misses[19] 	0
scalar tiger_cost_network.node[19].content_store 	decision_yes[19] 	0
scalar tiger_cost_network.node[19].content_store 	decision_no[19] 	0
scalar tiger_cost_network.node[19].content_store 	decision_ratio[19] 	0
scalar tiger_cost_network.node[20].core_layer 	interests[20] 	0
scalar tiger_cost_network.node[20].core_layer 	data[20] 	0
scalar tiger_cost_network.node[20].content_store 	p_hit[20] 	-nan
scalar tiger_cost_network.node[20].content_store 	hits[20] 	0
scalar tiger_cost_network.node[20].content_store 	misses[20] 	0
scalar tiger_cost_network.node[20].content_store 	decision_yes[20] 	0
scalar tiger_cost_network.node[20].content_store 	decision_no[20] 	0
scalar tiger_cost_network.node[20].content_store 	decision_ratio[20] 	0
scalar tiger_cost_network.node[21].core_layer 	interests[21] 	0
scalar tiger_cost_network.node[21].core_layer 	data[21] 	0
scalar tiger_cost_network.node[21].content_store 	p_hit[21] 	-nan
scalar tiger_cost_network.node[21].content_store 	hits[21] 	0
scalar tiger_cost_network.node[21].content_store 	misses[21] 	0
scalar tiger_cost_network.node[21].content_store 	decision_yes[21] 	0
scalar tiger_cost_network.node[21].content_store 	decision_no[21] 	0
scalar tiger_cost_network.node[21].content_store 	decision_ratio[21] 	0
scalar tiger_cost_network.client[0] 	hdistance[0] 	2.2793270325983
scalar tiger_cost_network.client[0] 	downloads[0] 	179979
scalar tiger_cost_network.client[0] 	avg_time[0] 	0.00039889543
scalar tiger_cost_network.client[4] 	hdistance[4] 	2.2064644056657
scalar tiger_cost_network.client[4] 	downloads[4] 	179537
scalar tiger_cost_network.client[4] 	avg_time[4] 	0.001003977247
scalar tiger_cost_network.client[9] 	hdistance[9] 	2.3791006685345
scalar tiger_cost_network.client[9] 	downloads[9] 	180245
scalar tiger_cost_network.client[9] 	avg_time[9] 	0.000850696972
