version 2
run General-2-20140930-18:32:53-28713
attr D fix0.01
attr F spr
attr R lru
attr a 1
attr configname General
attr csize 1e3
attr ctlg 1e5
attr datetime 20140930-18:32:53
attr experiment General
attr inifile omnetpp.ini
attr iterationvars "$net=tiger_cost, $rep=1, $priceratiovalue=10, $weights=0.333_0.333_0.334, $lambda=100, $a=1, $ctlg=1e5, $F=spr, $ttl=10, $D=fix0.01, $xi=1, $R=lru, $csize=1e3, $pricebits=0, $window=60, $variance=0.05, $mytime=1800"
attr iterationvars2 "$net=tiger_cost, $rep=1, $priceratiovalue=10, $weights=0.333_0.333_0.334, $lambda=100, $a=1, $ctlg=1e5, $F=spr, $ttl=10, $D=fix0.01, $xi=1, $R=lru, $csize=1e3, $pricebits=0, $window=60, $variance=0.05, $mytime=1800, $repetition=0"
attr lambda 100
attr measurement "$net=tiger_cost, $rep=1, $priceratiovalue=10, $weights=0.333_0.333_0.334, $lambda=100, $a=1, $ctlg=1e5, $F=spr, $ttl=10, $D=fix0.01, $xi=1, $R=lru, $csize=1e3, $pricebits=0, $window=60, $variance=0.05, $mytime=1800"
attr mytime 1800
attr net tiger_cost
attr network networks.${net=tiger_cost,dtelecom_cost}_network
attr pricebits 0
attr priceratiovalue 10
attr processid 28713
attr rep 1
attr repetition 0
attr replication #0
attr resultdir results
attr runnumber 2
attr seedset 1
attr ttl 10
attr variance 0.05
attr weights 0.333_0.333_0.334
attr window 60
attr xi 1

scalar . 	a 	1
scalar . 	csize 	1e3
scalar . 	ctlg 	1e5
scalar . 	lambda 	100
scalar . 	mytime 	1800
scalar . 	pricebits 	0
scalar . 	priceratiovalue 	10
scalar . 	rep 	1
scalar . 	ttl 	10
scalar . 	variance 	0.05
scalar . 	window 	60
scalar . 	xi 	1
scalar tiger_cost_network.content_distribution 	repo-0 	14
scalar tiger_cost_network.content_distribution 	repo-1 	5
scalar tiger_cost_network.content_distribution 	repo-2 	1
scalar tiger_cost_network.content_distribution 	client-0 	8
scalar tiger_cost_network.content_distribution 	client-1 	18
scalar tiger_cost_network.content_distribution 	client-2 	9
scalar tiger_cost_network.content_distribution 	repo-0_card 	33398
scalar tiger_cost_network.content_distribution 	repo-0_price 	0
scalar tiger_cost_network.content_distribution 	repo-1_card 	33040
scalar tiger_cost_network.content_distribution 	repo-1_price 	1
scalar tiger_cost_network.content_distribution 	repo-2_card 	33562
scalar tiger_cost_network.content_distribution 	repo-2_price 	10
scalar tiger_cost_network.statistics 	repo_popularity[0] 	0.42710281340035
scalar tiger_cost_network.statistics 	repo_popularity[1] 	0.27050451919503
scalar tiger_cost_network.statistics 	repo_popularity[2] 	0.30239266740463
scalar tiger_cost_network.statistics 	stabilization_time 	36060
scalar tiger_cost_network.statistics 	p_hit 	0.15502415044693
scalar tiger_cost_network.statistics 	interests 	72622.409090909
scalar tiger_cost_network.statistics 	data 	48119.954545455
scalar tiger_cost_network.statistics 	hdistance 	2.5046400897227
scalar tiger_cost_network.statistics 	avg_time 	0.000911610465
scalar tiger_cost_network.statistics 	downloads 	539040
scalar tiger_cost_network.statistics 	total_cost 	1142607
scalar tiger_cost_network.statistics 	total_replicas 	100000
scalar tiger_cost_network.statistics 	inner_hit 	0.4594928020184
scalar tiger_cost_network.node[0].core_layer 	interests[0] 	39617
scalar tiger_cost_network.node[0].core_layer 	data[0] 	35090
scalar tiger_cost_network.node[0].core_layer 	repo_int[0] 	291355
scalar tiger_cost_network.node[0].content_store 	p_hit[0] 	0.11426912688997
scalar tiger_cost_network.node[0].content_store 	hits[0] 	4527
scalar tiger_cost_network.node[0].content_store 	misses[0] 	35090
scalar tiger_cost_network.node[0].content_store 	decision_yes[0] 	346
scalar tiger_cost_network.node[0].content_store 	decision_no[0] 	34744
scalar tiger_cost_network.node[0].content_store 	decision_ratio[0] 	0.00986035907666
scalar tiger_cost_network.node[1].core_layer 	interests[1] 	191428
scalar tiger_cost_network.node[1].core_layer 	repo_load[1] 	104878
scalar tiger_cost_network.node[1].core_layer 	data[1] 	75132
scalar tiger_cost_network.node[1].content_store 	p_hit[1] 	0.059646446705811
scalar tiger_cost_network.node[1].content_store 	hits[1] 	11418
scalar tiger_cost_network.node[1].content_store 	misses[1] 	180010
scalar tiger_cost_network.node[1].content_store 	decision_yes[1] 	1811
scalar tiger_cost_network.node[1].content_store 	decision_no[1] 	178199
scalar tiger_cost_network.node[1].content_store 	decision_ratio[1] 	0.010060552191545
scalar tiger_cost_network.node[2].core_layer 	interests[2] 	107899
scalar tiger_cost_network.node[2].core_layer 	data[2] 	102233
scalar tiger_cost_network.node[2].content_store 	p_hit[2] 	0.052512071474249
scalar tiger_cost_network.node[2].content_store 	hits[2] 	5666
scalar tiger_cost_network.node[2].content_store 	misses[2] 	102233
scalar tiger_cost_network.node[2].content_store 	decision_yes[2] 	1019
scalar tiger_cost_network.node[2].content_store 	decision_no[2] 	101214
scalar tiger_cost_network.node[2].content_store 	decision_ratio[2] 	0.009967427347334
scalar tiger_cost_network.node[3].core_layer 	interests[3] 	104417
scalar tiger_cost_network.node[3].core_layer 	data[3] 	97260
scalar tiger_cost_network.node[3].content_store 	p_hit[3] 	0.068542478715152
scalar tiger_cost_network.node[3].content_store 	hits[3] 	7157
scalar tiger_cost_network.node[3].content_store 	misses[3] 	97260
scalar tiger_cost_network.node[3].content_store 	decision_yes[3] 	971
scalar tiger_cost_network.node[3].content_store 	decision_no[3] 	96289
scalar tiger_cost_network.node[3].content_store 	decision_ratio[3] 	0.0099835492494345
scalar tiger_cost_network.node[4].core_layer 	interests[4] 	36802
scalar tiger_cost_network.node[4].core_layer 	data[4] 	34398
scalar tiger_cost_network.node[4].content_store 	p_hit[4] 	0.065322536818651
scalar tiger_cost_network.node[4].content_store 	hits[4] 	2404
scalar tiger_cost_network.node[4].content_store 	misses[4] 	34398
scalar tiger_cost_network.node[4].content_store 	decision_yes[4] 	341
scalar tiger_cost_network.node[4].content_store 	decision_no[4] 	34057
scalar tiger_cost_network.node[4].content_store 	decision_ratio[4] 	0.0099133670562242
scalar tiger_cost_network.node[5].core_layer 	interests[5] 	99753
scalar tiger_cost_network.node[5].core_layer 	repo_load[5] 	93827
scalar tiger_cost_network.node[5].core_layer 	data[5] 	0
scalar tiger_cost_network.node[5].content_store 	p_hit[5] 	0.059406734634547
scalar tiger_cost_network.node[5].content_store 	hits[5] 	5926
scalar tiger_cost_network.node[5].content_store 	misses[5] 	93827
scalar tiger_cost_network.node[5].content_store 	decision_yes[5] 	909
scalar tiger_cost_network.node[5].content_store 	decision_no[5] 	92918
scalar tiger_cost_network.node[5].content_store 	decision_ratio[5] 	0.0096880428874418
scalar tiger_cost_network.node[6].core_layer 	interests[6] 	67947
scalar tiger_cost_network.node[6].core_layer 	data[6] 	62691
scalar tiger_cost_network.node[6].content_store 	p_hit[6] 	0.07735440858316
scalar tiger_cost_network.node[6].content_store 	hits[6] 	5256
scalar tiger_cost_network.node[6].content_store 	misses[6] 	62691
scalar tiger_cost_network.node[6].content_store 	decision_yes[6] 	593
scalar tiger_cost_network.node[6].content_store 	decision_no[6] 	62098
scalar tiger_cost_network.node[6].content_store 	decision_ratio[6] 	0.0094590930117561
scalar tiger_cost_network.node[7].core_layer 	interests[7] 	78421
scalar tiger_cost_network.node[7].core_layer 	data[7] 	67947
scalar tiger_cost_network.node[7].content_store 	p_hit[7] 	0.13356116346387
scalar tiger_cost_network.node[7].content_store 	hits[7] 	10474
scalar tiger_cost_network.node[7].content_store 	misses[7] 	67947
scalar tiger_cost_network.node[7].content_store 	decision_yes[7] 	663
scalar tiger_cost_network.node[7].content_store 	decision_no[7] 	67284
scalar tiger_cost_network.node[7].content_store 	decision_ratio[7] 	0.0097576051922822
scalar tiger_cost_network.node[8].core_layer 	interests[8] 	299226
scalar tiger_cost_network.node[8].core_layer 	data[8] 	237635
scalar tiger_cost_network.node[8].content_store 	p_hit[8] 	0.20580765040471
scalar tiger_cost_network.node[8].content_store 	hits[8] 	61583
scalar tiger_cost_network.node[8].content_store 	misses[8] 	237643
scalar tiger_cost_network.node[8].content_store 	decision_yes[8] 	2356
scalar tiger_cost_network.node[8].content_store 	decision_no[8] 	235279
scalar tiger_cost_network.node[8].content_store 	decision_ratio[8] 	0.0099143644665138
scalar tiger_cost_network.node[9].core_layer 	interests[9] 	179451
scalar tiger_cost_network.node[9].core_layer 	data[9] 	119409
scalar tiger_cost_network.node[9].content_store 	p_hit[9] 	0.33454814963416
scalar tiger_cost_network.node[9].content_store 	hits[9] 	60035
scalar tiger_cost_network.node[9].content_store 	misses[9] 	119416
scalar tiger_cost_network.node[9].content_store 	decision_yes[9] 	1194
scalar tiger_cost_network.node[9].content_store 	decision_no[9] 	118215
scalar tiger_cost_network.node[9].content_store 	decision_ratio[9] 	0.0099992462879682
scalar tiger_cost_network.node[10].core_layer 	interests[10] 	0
scalar tiger_cost_network.node[10].core_layer 	data[10] 	0
scalar tiger_cost_network.node[10].content_store 	p_hit[10] 	-nan
scalar tiger_cost_network.node[10].content_store 	hits[10] 	0
scalar tiger_cost_network.node[10].content_store 	misses[10] 	0
scalar tiger_cost_network.node[10].content_store 	decision_yes[10] 	0
scalar tiger_cost_network.node[10].content_store 	decision_no[10] 	0
scalar tiger_cost_network.node[10].content_store 	decision_ratio[10] 	0
scalar tiger_cost_network.node[11].core_layer 	interests[11] 	0
scalar tiger_cost_network.node[11].core_layer 	data[11] 	0
scalar tiger_cost_network.node[11].content_store 	p_hit[11] 	-nan
scalar tiger_cost_network.node[11].content_store 	hits[11] 	0
scalar tiger_cost_network.node[11].content_store 	misses[11] 	0
scalar tiger_cost_network.node[11].content_store 	decision_yes[11] 	0
scalar tiger_cost_network.node[11].content_store 	decision_no[11] 	0
scalar tiger_cost_network.node[11].content_store 	decision_ratio[11] 	0
scalar tiger_cost_network.node[12].core_layer 	interests[12] 	35090
scalar tiger_cost_network.node[12].core_layer 	data[12] 	32767
scalar tiger_cost_network.node[12].content_store 	p_hit[12] 	0.0662011969222
scalar tiger_cost_network.node[12].content_store 	hits[12] 	2323
scalar tiger_cost_network.node[12].content_store 	misses[12] 	32767
scalar tiger_cost_network.node[12].content_store 	decision_yes[12] 	339
scalar tiger_cost_network.node[12].content_store 	decision_no[12] 	32428
scalar tiger_cost_network.node[12].content_store 	decision_ratio[12] 	0.010345774712363
scalar tiger_cost_network.node[13].core_layer 	interests[13] 	0
scalar tiger_cost_network.node[13].core_layer 	data[13] 	0
scalar tiger_cost_network.node[13].content_store 	p_hit[13] 	-nan
scalar tiger_cost_network.node[13].content_store 	hits[13] 	0
scalar tiger_cost_network.node[13].content_store 	misses[13] 	0
scalar tiger_cost_network.node[13].content_store 	decision_yes[13] 	0
scalar tiger_cost_network.node[13].content_store 	decision_no[13] 	0
scalar tiger_cost_network.node[13].content_store 	decision_ratio[13] 	0
scalar tiger_cost_network.node[14].core_layer 	interests[14] 	97260
scalar tiger_cost_network.node[14].core_layer 	repo_load[14] 	92650
scalar tiger_cost_network.node[14].core_layer 	data[14] 	0
scalar tiger_cost_network.node[14].content_store 	p_hit[14] 	0.047398725066831
scalar tiger_cost_network.node[14].content_store 	hits[14] 	4610
scalar tiger_cost_network.node[14].content_store 	misses[14] 	92650
scalar tiger_cost_network.node[14].content_store 	decision_yes[14] 	956
scalar tiger_cost_network.node[14].content_store 	decision_no[14] 	91694
scalar tiger_cost_network.node[14].content_store 	decision_ratio[14] 	0.010318402590394
scalar tiger_cost_network.node[15].core_layer 	interests[15] 	0
scalar tiger_cost_network.node[15].core_layer 	data[15] 	0
scalar tiger_cost_network.node[15].content_store 	p_hit[15] 	-nan
scalar tiger_cost_network.node[15].content_store 	hits[15] 	0
scalar tiger_cost_network.node[15].content_store 	misses[15] 	0
scalar tiger_cost_network.node[15].content_store 	decision_yes[15] 	0
scalar tiger_cost_network.node[15].content_store 	decision_no[15] 	0
scalar tiger_cost_network.node[15].content_store 	decision_ratio[15] 	0
scalar tiger_cost_network.node[16].core_layer 	interests[16] 	0
scalar tiger_cost_network.node[16].core_layer 	data[16] 	0
scalar tiger_cost_network.node[16].content_store 	p_hit[16] 	-nan
scalar tiger_cost_network.node[16].content_store 	hits[16] 	0
scalar tiger_cost_network.node[16].content_store 	misses[16] 	0
scalar tiger_cost_network.node[16].content_store 	decision_yes[16] 	0
scalar tiger_cost_network.node[16].content_store 	decision_no[16] 	0
scalar tiger_cost_network.node[16].content_store 	decision_ratio[16] 	0
scalar tiger_cost_network.node[17].core_layer 	interests[17] 	80596
scalar tiger_cost_network.node[17].core_layer 	data[17] 	73864
scalar tiger_cost_network.node[17].content_store 	p_hit[17] 	0.083527718497196
scalar tiger_cost_network.node[17].content_store 	hits[17] 	6732
scalar tiger_cost_network.node[17].content_store 	misses[17] 	73864
scalar tiger_cost_network.node[17].content_store 	decision_yes[17] 	745
scalar tiger_cost_network.node[17].content_store 	decision_no[17] 	73119
scalar tiger_cost_network.node[17].content_store 	decision_ratio[17] 	0.010086104191487
scalar tiger_cost_network.node[18].core_layer 	interests[18] 	179786
scalar tiger_cost_network.node[18].core_layer 	data[18] 	120213
scalar tiger_cost_network.node[18].content_store 	p_hit[18] 	0.33133836894975
scalar tiger_cost_network.node[18].content_store 	hits[18] 	59570
scalar tiger_cost_network.node[18].content_store 	misses[18] 	120216
scalar tiger_cost_network.node[18].content_store 	decision_yes[18] 	1198
scalar tiger_cost_network.node[18].content_store 	decision_no[18] 	119015
scalar tiger_cost_network.node[18].content_store 	decision_ratio[18] 	0.0099656443146748
scalar tiger_cost_network.node[19].core_layer 	interests[19] 	0
scalar tiger_cost_network.node[19].core_layer 	data[19] 	0
scalar tiger_cost_network.node[19].content_store 	p_hit[19] 	-nan
scalar tiger_cost_network.node[19].content_store 	hits[19] 	0
scalar tiger_cost_network.node[19].content_store 	misses[19] 	0
scalar tiger_cost_network.node[19].content_store 	decision_yes[19] 	0
scalar tiger_cost_network.node[19].content_store 	decision_no[19] 	0
scalar tiger_cost_network.node[19].content_store 	decision_ratio[19] 	0
scalar tiger_cost_network.node[20].core_layer 	interests[20] 	0
scalar tiger_cost_network.node[20].core_layer 	data[20] 	0
scalar tiger_cost_network.node[20].content_store 	p_hit[20] 	-nan
scalar tiger_cost_network.node[20].content_store 	hits[20] 	0
scalar tiger_cost_network.node[20].content_store 	misses[20] 	0
scalar tiger_cost_network.node[20].content_store 	decision_yes[20] 	0
scalar tiger_cost_network.node[20].content_store 	decision_no[20] 	0
scalar tiger_cost_network.node[20].content_store 	decision_ratio[20] 	0
scalar tiger_cost_network.node[21].core_layer 	interests[21] 	0
scalar tiger_cost_network.node[21].core_layer 	data[21] 	0
scalar tiger_cost_network.node[21].content_store 	p_hit[21] 	-nan
scalar tiger_cost_network.node[21].content_store 	hits[21] 	0
scalar tiger_cost_network.node[21].content_store 	misses[21] 	0
scalar tiger_cost_network.node[21].content_store 	decision_yes[21] 	0
scalar tiger_cost_network.node[21].content_store 	decision_no[21] 	0
scalar tiger_cost_network.node[21].content_store 	decision_ratio[21] 	0
scalar tiger_cost_network.client[8] 	hdistance[8] 	2.2005694805159
scalar tiger_cost_network.client[8] 	downloads[8] 	179813
scalar tiger_cost_network.client[8] 	avg_time[8] 	0.000826985809
scalar tiger_cost_network.client[9] 	hdistance[9] 	2.7732886025724
scalar tiger_cost_network.client[9] 	downloads[9] 	179444
scalar tiger_cost_network.client[9] 	avg_time[9] 	0.000988085002
scalar tiger_cost_network.client[18] 	hdistance[18] 	2.5400621860798
scalar tiger_cost_network.client[18] 	downloads[18] 	179783
scalar tiger_cost_network.client[18] 	avg_time[18] 	0.000919760585
