version 2
run General-8-20140930-15:36:22-24953
attr D fix0.01
attr F spr
attr R lru
attr a 1
attr configname General
attr csize 1e3
attr ctlg 1e5
attr datetime 20140930-15:36:22
attr experiment General
attr inifile omnetpp.ini
attr iterationvars "$net=tiger_cost, $rep=18, $priceratiovalue=10, $weights=0.333_0.333_0.334, $lambda=100, $a=1, $ctlg=1e5, $F=spr, $ttl=10, $D=fix0.01, $xi=1, $R=lru, $csize=1e3, $pricebits=0, $window=60, $variance=0.05, $mytime=1800"
attr iterationvars2 "$net=tiger_cost, $rep=18, $priceratiovalue=10, $weights=0.333_0.333_0.334, $lambda=100, $a=1, $ctlg=1e5, $F=spr, $ttl=10, $D=fix0.01, $xi=1, $R=lru, $csize=1e3, $pricebits=0, $window=60, $variance=0.05, $mytime=1800, $repetition=0"
attr lambda 100
attr measurement "$net=tiger_cost, $rep=18, $priceratiovalue=10, $weights=0.333_0.333_0.334, $lambda=100, $a=1, $ctlg=1e5, $F=spr, $ttl=10, $D=fix0.01, $xi=1, $R=lru, $csize=1e3, $pricebits=0, $window=60, $variance=0.05, $mytime=1800"
attr mytime 1800
attr net tiger_cost
attr network networks.${net=level3_cost,tiger_cost,dtelecom_cost}_network
attr pricebits 0
attr priceratiovalue 10
attr processid 24953
attr rep 18
attr repetition 0
attr replication #0
attr resultdir results
attr runnumber 8
attr seedset 18
attr ttl 10
attr variance 0.05
attr weights 0.333_0.333_0.334
attr window 60
attr xi 1

scalar . 	a 	1
scalar . 	csize 	1e3
scalar . 	ctlg 	1e5
scalar . 	lambda 	100
scalar . 	mytime 	1800
scalar . 	pricebits 	0
scalar . 	priceratiovalue 	10
scalar . 	rep 	18
scalar . 	ttl 	10
scalar . 	variance 	0.05
scalar . 	window 	60
scalar . 	xi 	1
scalar tiger_cost_network.content_distribution 	repo-0 	13
scalar tiger_cost_network.content_distribution 	repo-1 	7
scalar tiger_cost_network.content_distribution 	repo-2 	8
scalar tiger_cost_network.content_distribution 	client-0 	5
scalar tiger_cost_network.content_distribution 	client-1 	1
scalar tiger_cost_network.content_distribution 	client-2 	16
scalar tiger_cost_network.content_distribution 	repo-0_card 	33458
scalar tiger_cost_network.content_distribution 	repo-0_price 	10
scalar tiger_cost_network.content_distribution 	repo-1_card 	33219
scalar tiger_cost_network.content_distribution 	repo-1_price 	1
scalar tiger_cost_network.content_distribution 	repo-2_card 	33323
scalar tiger_cost_network.content_distribution 	repo-2_price 	0
scalar tiger_cost_network.statistics 	repo_popularity[0] 	0.43323683832893
scalar tiger_cost_network.statistics 	repo_popularity[1] 	0.27229839117188
scalar tiger_cost_network.statistics 	repo_popularity[2] 	0.2944647704992
scalar tiger_cost_network.statistics 	stabilization_time 	36060
scalar tiger_cost_network.statistics 	p_hit 	0.17669250372254
scalar tiger_cost_network.statistics 	interests 	61785.818181818
scalar tiger_cost_network.statistics 	data 	37204.772727273
scalar tiger_cost_network.statistics 	hdistance 	2.069355562707
scalar tiger_cost_network.statistics 	avg_time 	0.000756094024
scalar tiger_cost_network.statistics 	downloads 	540774
scalar tiger_cost_network.statistics 	total_cost 	1042825
scalar tiger_cost_network.statistics 	total_replicas 	100000
scalar tiger_cost_network.statistics 	inner_hit 	0.44413747702367
scalar tiger_cost_network.node[0].core_layer 	interests[0] 	0
scalar tiger_cost_network.node[0].core_layer 	data[0] 	0
scalar tiger_cost_network.node[0].core_layer 	repo_int[0] 	300596
scalar tiger_cost_network.node[0].content_store 	p_hit[0] 	-nan
scalar tiger_cost_network.node[0].content_store 	hits[0] 	0
scalar tiger_cost_network.node[0].content_store 	misses[0] 	0
scalar tiger_cost_network.node[0].content_store 	decision_yes[0] 	0
scalar tiger_cost_network.node[0].content_store 	decision_no[0] 	0
scalar tiger_cost_network.node[0].content_store 	decision_ratio[0] 	0
scalar tiger_cost_network.node[1].core_layer 	interests[1] 	180024
scalar tiger_cost_network.node[1].core_layer 	data[1] 	120209
scalar tiger_cost_network.node[1].content_store 	p_hit[1] 	0.33225014442519
scalar tiger_cost_network.node[1].content_store 	hits[1] 	59813
scalar tiger_cost_network.node[1].content_store 	misses[1] 	120211
scalar tiger_cost_network.node[1].content_store 	decision_yes[1] 	1192
scalar tiger_cost_network.node[1].content_store 	decision_no[1] 	119017
scalar tiger_cost_network.node[1].content_store 	decision_ratio[1] 	0.0099160628571904
scalar tiger_cost_network.node[2].core_layer 	interests[2] 	72363
scalar tiger_cost_network.node[2].core_layer 	data[2] 	65604
scalar tiger_cost_network.node[2].content_store 	p_hit[2] 	0.093390268507386
scalar tiger_cost_network.node[2].content_store 	hits[2] 	6758
scalar tiger_cost_network.node[2].content_store 	misses[2] 	65605
scalar tiger_cost_network.node[2].content_store 	decision_yes[2] 	649
scalar tiger_cost_network.node[2].content_store 	decision_no[2] 	64955
scalar tiger_cost_network.node[2].content_store 	decision_ratio[2] 	0.0098926894701543
scalar tiger_cost_network.node[3].core_layer 	interests[3] 	34733
scalar tiger_cost_network.node[3].core_layer 	data[3] 	32335
scalar tiger_cost_network.node[3].content_store 	p_hit[3] 	0.06904096968301
scalar tiger_cost_network.node[3].content_store 	hits[3] 	2398
scalar tiger_cost_network.node[3].content_store 	misses[3] 	32335
scalar tiger_cost_network.node[3].content_store 	decision_yes[3] 	294
scalar tiger_cost_network.node[3].content_store 	decision_no[3] 	32041
scalar tiger_cost_network.node[3].content_store 	decision_ratio[3] 	0.0090923148291325
scalar tiger_cost_network.node[4].core_layer 	interests[4] 	39406
scalar tiger_cost_network.node[4].core_layer 	data[4] 	34733
scalar tiger_cost_network.node[4].content_store 	p_hit[4] 	0.11858600213166
scalar tiger_cost_network.node[4].content_store 	hits[4] 	4673
scalar tiger_cost_network.node[4].content_store 	misses[4] 	34733
scalar tiger_cost_network.node[4].content_store 	decision_yes[4] 	338
scalar tiger_cost_network.node[4].content_store 	decision_no[4] 	34395
scalar tiger_cost_network.node[4].content_store 	decision_ratio[4] 	0.0097313793798405
scalar tiger_cost_network.node[5].core_layer 	interests[5] 	179774
scalar tiger_cost_network.node[5].core_layer 	data[5] 	119899
scalar tiger_cost_network.node[5].content_store 	p_hit[5] 	0.33303481037302
scalar tiger_cost_network.node[5].content_store 	hits[5] 	59871
scalar tiger_cost_network.node[5].content_store 	misses[5] 	119903
scalar tiger_cost_network.node[5].content_store 	decision_yes[5] 	1233
scalar tiger_cost_network.node[5].content_store 	decision_no[5] 	118666
scalar tiger_cost_network.node[5].content_store 	decision_ratio[5] 	0.01028365540997
scalar tiger_cost_network.node[6].core_layer 	interests[6] 	161512
scalar tiger_cost_network.node[6].core_layer 	data[6] 	146918
scalar tiger_cost_network.node[6].content_store 	p_hit[6] 	0.090352419634454
scalar tiger_cost_network.node[6].content_store 	hits[6] 	14593
scalar tiger_cost_network.node[6].content_store 	misses[6] 	146919
scalar tiger_cost_network.node[6].content_store 	decision_yes[6] 	1446
scalar tiger_cost_network.node[6].content_store 	decision_no[6] 	145472
scalar tiger_cost_network.node[6].content_store 	decision_ratio[6] 	0.0098422249145782
scalar tiger_cost_network.node[7].core_layer 	interests[7] 	185549
scalar tiger_cost_network.node[7].core_layer 	repo_load[7] 	104035
scalar tiger_cost_network.node[7].core_layer 	data[7] 	71274
scalar tiger_cost_network.node[7].content_store 	p_hit[7] 	0.055187578483312
scalar tiger_cost_network.node[7].content_store 	hits[7] 	10240
scalar tiger_cost_network.node[7].content_store 	misses[7] 	175309
scalar tiger_cost_network.node[7].content_store 	decision_yes[7] 	1764
scalar tiger_cost_network.node[7].content_store 	decision_no[7] 	173545
scalar tiger_cost_network.node[7].content_store 	decision_ratio[7] 	0.010062232971496
scalar tiger_cost_network.node[8].core_layer 	interests[8] 	151455
scalar tiger_cost_network.node[8].core_layer 	repo_load[8] 	102682
scalar tiger_cost_network.node[8].core_layer 	data[8] 	38631
scalar tiger_cost_network.node[8].content_store 	p_hit[8] 	0.066963784622495
scalar tiger_cost_network.node[8].content_store 	hits[8] 	10142
scalar tiger_cost_network.node[8].content_store 	misses[8] 	141313
scalar tiger_cost_network.node[8].content_store 	decision_yes[8] 	1478
scalar tiger_cost_network.node[8].content_store 	decision_no[8] 	139835
scalar tiger_cost_network.node[8].content_store 	decision_ratio[8] 	0.0104590518919
scalar tiger_cost_network.node[9].core_layer 	interests[9] 	0
scalar tiger_cost_network.node[9].core_layer 	data[9] 	0
scalar tiger_cost_network.node[9].content_store 	p_hit[9] 	-nan
scalar tiger_cost_network.node[9].content_store 	hits[9] 	0
scalar tiger_cost_network.node[9].content_store 	misses[9] 	0
scalar tiger_cost_network.node[9].content_store 	decision_yes[9] 	0
scalar tiger_cost_network.node[9].content_store 	decision_no[9] 	0
scalar tiger_cost_network.node[9].content_store 	decision_ratio[9] 	0
scalar tiger_cost_network.node[10].core_layer 	interests[10] 	0
scalar tiger_cost_network.node[10].core_layer 	data[10] 	0
scalar tiger_cost_network.node[10].content_store 	p_hit[10] 	-nan
scalar tiger_cost_network.node[10].content_store 	hits[10] 	0
scalar tiger_cost_network.node[10].content_store 	misses[10] 	0
scalar tiger_cost_network.node[10].content_store 	decision_yes[10] 	0
scalar tiger_cost_network.node[10].content_store 	decision_no[10] 	0
scalar tiger_cost_network.node[10].content_store 	decision_ratio[10] 	0
scalar tiger_cost_network.node[11].core_layer 	interests[11] 	0
scalar tiger_cost_network.node[11].core_layer 	data[11] 	0
scalar tiger_cost_network.node[11].content_store 	p_hit[11] 	-nan
scalar tiger_cost_network.node[11].content_store 	hits[11] 	0
scalar tiger_cost_network.node[11].content_store 	misses[11] 	0
scalar tiger_cost_network.node[11].content_store 	decision_yes[11] 	0
scalar tiger_cost_network.node[11].content_store 	decision_no[11] 	0
scalar tiger_cost_network.node[11].content_store 	decision_ratio[11] 	0
scalar tiger_cost_network.node[12].core_layer 	interests[12] 	0
scalar tiger_cost_network.node[12].core_layer 	data[12] 	0
scalar tiger_cost_network.node[12].content_store 	p_hit[12] 	-nan
scalar tiger_cost_network.node[12].content_store 	hits[12] 	0
scalar tiger_cost_network.node[12].content_store 	misses[12] 	0
scalar tiger_cost_network.node[12].content_store 	decision_yes[12] 	0
scalar tiger_cost_network.node[12].content_store 	decision_no[12] 	0
scalar tiger_cost_network.node[12].content_store 	decision_ratio[12] 	0
scalar tiger_cost_network.node[13].core_layer 	interests[13] 	98559
scalar tiger_cost_network.node[13].core_layer 	repo_load[13] 	93879
scalar tiger_cost_network.node[13].core_layer 	data[13] 	0
scalar tiger_cost_network.node[13].content_store 	p_hit[13] 	0.04748424801388
scalar tiger_cost_network.node[13].content_store 	hits[13] 	4680
scalar tiger_cost_network.node[13].content_store 	misses[13] 	93879
scalar tiger_cost_network.node[13].content_store 	decision_yes[13] 	991
scalar tiger_cost_network.node[13].content_store 	decision_no[13] 	92888
scalar tiger_cost_network.node[13].content_store 	decision_ratio[13] 	0.010556141416078
scalar tiger_cost_network.node[14].core_layer 	interests[14] 	34859
scalar tiger_cost_network.node[14].core_layer 	data[14] 	32955
scalar tiger_cost_network.node[14].content_store 	p_hit[14] 	0.054620040735535
scalar tiger_cost_network.node[14].content_store 	hits[14] 	1904
scalar tiger_cost_network.node[14].content_store 	misses[14] 	32955
scalar tiger_cost_network.node[14].content_store 	decision_yes[14] 	322
scalar tiger_cost_network.node[14].content_store 	decision_no[14] 	32633
scalar tiger_cost_network.node[14].content_store 	decision_ratio[14] 	0.0097708997117281
scalar tiger_cost_network.node[15].core_layer 	interests[15] 	40069
scalar tiger_cost_network.node[15].core_layer 	data[15] 	34859
scalar tiger_cost_network.node[15].content_store 	p_hit[15] 	0.13002570565774
scalar tiger_cost_network.node[15].content_store 	hits[15] 	5210
scalar tiger_cost_network.node[15].content_store 	misses[15] 	34859
scalar tiger_cost_network.node[15].content_store 	decision_yes[15] 	361
scalar tiger_cost_network.node[15].content_store 	decision_no[15] 	34498
scalar tiger_cost_network.node[15].content_store 	decision_ratio[15] 	0.010356005622651
scalar tiger_cost_network.node[16].core_layer 	interests[16] 	180985
scalar tiger_cost_network.node[16].core_layer 	data[16] 	121088
scalar tiger_cost_network.node[16].content_store 	p_hit[16] 	0.33093350277647
scalar tiger_cost_network.node[16].content_store 	hits[16] 	59894
scalar tiger_cost_network.node[16].content_store 	misses[16] 	121091
scalar tiger_cost_network.node[16].content_store 	decision_yes[16] 	1212
scalar tiger_cost_network.node[16].content_store 	decision_no[16] 	119876
scalar tiger_cost_network.node[16].content_store 	decision_ratio[16] 	0.010009249471459
scalar tiger_cost_network.node[17].core_layer 	interests[17] 	0
scalar tiger_cost_network.node[17].core_layer 	data[17] 	0
scalar tiger_cost_network.node[17].content_store 	p_hit[17] 	-nan
scalar tiger_cost_network.node[17].content_store 	hits[17] 	0
scalar tiger_cost_network.node[17].content_store 	misses[17] 	0
scalar tiger_cost_network.node[17].content_store 	decision_yes[17] 	0
scalar tiger_cost_network.node[17].content_store 	decision_no[17] 	0
scalar tiger_cost_network.node[17].content_store 	decision_ratio[17] 	0
scalar tiger_cost_network.node[18].core_layer 	interests[18] 	0
scalar tiger_cost_network.node[18].core_layer 	data[18] 	0
scalar tiger_cost_network.node[18].content_store 	p_hit[18] 	-nan
scalar tiger_cost_network.node[18].content_store 	hits[18] 	0
scalar tiger_cost_network.node[18].content_store 	misses[18] 	0
scalar tiger_cost_network.node[18].content_store 	decision_yes[18] 	0
scalar tiger_cost_network.node[18].content_store 	decision_no[18] 	0
scalar tiger_cost_network.node[18].content_store 	decision_ratio[18] 	0
scalar tiger_cost_network.node[19].core_layer 	interests[19] 	0
scalar tiger_cost_network.node[19].core_layer 	data[19] 	0
scalar tiger_cost_network.node[19].content_store 	p_hit[19] 	-nan
scalar tiger_cost_network.node[19].content_store 	hits[19] 	0
scalar tiger_cost_network.node[19].content_store 	misses[19] 	0
scalar tiger_cost_network.node[19].content_store 	decision_yes[19] 	0
scalar tiger_cost_network.node[19].content_store 	decision_no[19] 	0
scalar tiger_cost_network.node[19].content_store 	decision_ratio[19] 	0
scalar tiger_cost_network.node[20].core_layer 	interests[20] 	0
scalar tiger_cost_network.node[20].core_layer 	data[20] 	0
scalar tiger_cost_network.node[20].content_store 	p_hit[20] 	-nan
scalar tiger_cost_network.node[20].content_store 	hits[20] 	0
scalar tiger_cost_network.node[20].content_store 	misses[20] 	0
scalar tiger_cost_network.node[20].content_store 	decision_yes[20] 	0
scalar tiger_cost_network.node[20].content_store 	decision_no[20] 	0
scalar tiger_cost_network.node[20].content_store 	decision_ratio[20] 	0
scalar tiger_cost_network.node[21].core_layer 	interests[21] 	0
scalar tiger_cost_network.node[21].core_layer 	data[21] 	0
scalar tiger_cost_network.node[21].content_store 	p_hit[21] 	-nan
scalar tiger_cost_network.node[21].content_store 	hits[21] 	0
scalar tiger_cost_network.node[21].content_store 	misses[21] 	0
scalar tiger_cost_network.node[21].content_store 	decision_yes[21] 	0
scalar tiger_cost_network.node[21].content_store 	decision_no[21] 	0
scalar tiger_cost_network.node[21].content_store 	decision_ratio[21] 	0
scalar tiger_cost_network.client[1] 	hdistance[1] 	1.6603915077046
scalar tiger_cost_network.client[1] 	downloads[1] 	180022
scalar tiger_cost_network.client[1] 	avg_time[1] 	0.000552721854
scalar tiger_cost_network.client[5] 	hdistance[5] 	2.3509484341102
scalar tiger_cost_network.client[5] 	downloads[5] 	179770
scalar tiger_cost_network.client[5] 	avg_time[5] 	0.001176353246
scalar tiger_cost_network.client[16] 	hdistance[16] 	2.1967267463063
scalar tiger_cost_network.client[16] 	downloads[16] 	180982
scalar tiger_cost_network.client[16] 	avg_time[16] 	0.000539206972
