version 2
run General-8-20140930-15:58:28-21817
attr D fix0.01
attr F spr
attr R lru
attr a 1
attr configname General
attr csize 1e3
attr ctlg 1e5
attr datetime 20140930-15:58:28
attr experiment General
attr inifile omnetpp.ini
attr iterationvars "$net=tiger_cost, $rep=15, $priceratiovalue=10, $weights=0.333_0.333_0.334, $lambda=100, $a=1, $ctlg=1e5, $F=spr, $ttl=10, $D=fix0.01, $xi=1, $R=lru, $csize=1e3, $pricebits=0, $window=60, $variance=0.05, $mytime=1800"
attr iterationvars2 "$net=tiger_cost, $rep=15, $priceratiovalue=10, $weights=0.333_0.333_0.334, $lambda=100, $a=1, $ctlg=1e5, $F=spr, $ttl=10, $D=fix0.01, $xi=1, $R=lru, $csize=1e3, $pricebits=0, $window=60, $variance=0.05, $mytime=1800, $repetition=0"
attr lambda 100
attr measurement "$net=tiger_cost, $rep=15, $priceratiovalue=10, $weights=0.333_0.333_0.334, $lambda=100, $a=1, $ctlg=1e5, $F=spr, $ttl=10, $D=fix0.01, $xi=1, $R=lru, $csize=1e3, $pricebits=0, $window=60, $variance=0.05, $mytime=1800"
attr mytime 1800
attr net tiger_cost
attr network networks.${net=level3_cost,tiger_cost,dtelecom_cost}_network
attr pricebits 0
attr priceratiovalue 10
attr processid 21817
attr rep 15
attr repetition 0
attr replication #0
attr resultdir results
attr runnumber 8
attr seedset 15
attr ttl 10
attr variance 0.05
attr weights 0.333_0.333_0.334
attr window 60
attr xi 1

scalar . 	a 	1
scalar . 	csize 	1e3
scalar . 	ctlg 	1e5
scalar . 	lambda 	100
scalar . 	mytime 	1800
scalar . 	pricebits 	0
scalar . 	priceratiovalue 	10
scalar . 	rep 	15
scalar . 	ttl 	10
scalar . 	variance 	0.05
scalar . 	window 	60
scalar . 	xi 	1
scalar tiger_cost_network.content_distribution 	repo-0 	5
scalar tiger_cost_network.content_distribution 	repo-1 	8
scalar tiger_cost_network.content_distribution 	repo-2 	20
scalar tiger_cost_network.content_distribution 	client-0 	19
scalar tiger_cost_network.content_distribution 	client-1 	18
scalar tiger_cost_network.content_distribution 	client-2 	11
scalar tiger_cost_network.content_distribution 	repo-0_card 	33352
scalar tiger_cost_network.content_distribution 	repo-0_price 	1
scalar tiger_cost_network.content_distribution 	repo-1_card 	33287
scalar tiger_cost_network.content_distribution 	repo-1_price 	0
scalar tiger_cost_network.content_distribution 	repo-2_card 	33361
scalar tiger_cost_network.content_distribution 	repo-2_price 	10
scalar tiger_cost_network.statistics 	repo_popularity[0] 	0.39661812235512
scalar tiger_cost_network.statistics 	repo_popularity[1] 	0.26899614044563
scalar tiger_cost_network.statistics 	repo_popularity[2] 	0.33438573719926
scalar tiger_cost_network.statistics 	stabilization_time 	36060
scalar tiger_cost_network.statistics 	p_hit 	0.17956871104079
scalar tiger_cost_network.statistics 	interests 	62055
scalar tiger_cost_network.statistics 	data 	37534.727272727
scalar tiger_cost_network.statistics 	hdistance 	2.0761991720523
scalar tiger_cost_network.statistics 	avg_time 	0.000335297703
scalar tiger_cost_network.statistics 	downloads 	539437
scalar tiger_cost_network.statistics 	total_cost 	1116944
scalar tiger_cost_network.statistics 	total_replicas 	100000
scalar tiger_cost_network.statistics 	inner_hit 	0.45446456212681
scalar tiger_cost_network.node[0].core_layer 	interests[0] 	80280
scalar tiger_cost_network.node[0].core_layer 	data[0] 	73411
scalar tiger_cost_network.node[0].core_layer 	repo_int[0] 	294282
scalar tiger_cost_network.node[0].content_store 	p_hit[0] 	0.08556302939711
scalar tiger_cost_network.node[0].content_store 	hits[0] 	6869
scalar tiger_cost_network.node[0].content_store 	misses[0] 	73411
scalar tiger_cost_network.node[0].content_store 	decision_yes[0] 	794
scalar tiger_cost_network.node[0].content_store 	decision_no[0] 	72617
scalar tiger_cost_network.node[0].content_store 	decision_ratio[0] 	0.010815817792974
scalar tiger_cost_network.node[1].core_layer 	interests[1] 	34633
scalar tiger_cost_network.node[1].core_layer 	data[1] 	31920
scalar tiger_cost_network.node[1].content_store 	p_hit[1] 	0.078335691392602
scalar tiger_cost_network.node[1].content_store 	hits[1] 	2713
scalar tiger_cost_network.node[1].content_store 	misses[1] 	31920
scalar tiger_cost_network.node[1].content_store 	decision_yes[1] 	320
scalar tiger_cost_network.node[1].content_store 	decision_no[1] 	31600
scalar tiger_cost_network.node[1].content_store 	decision_ratio[1] 	0.010025062656642
scalar tiger_cost_network.node[2].core_layer 	interests[2] 	0
scalar tiger_cost_network.node[2].core_layer 	data[2] 	0
scalar tiger_cost_network.node[2].content_store 	p_hit[2] 	-nan
scalar tiger_cost_network.node[2].content_store 	hits[2] 	0
scalar tiger_cost_network.node[2].content_store 	misses[2] 	0
scalar tiger_cost_network.node[2].content_store 	decision_yes[2] 	0
scalar tiger_cost_network.node[2].content_store 	decision_no[2] 	0
scalar tiger_cost_network.node[2].content_store 	decision_ratio[2] 	0
scalar tiger_cost_network.node[3].core_layer 	interests[3] 	0
scalar tiger_cost_network.node[3].core_layer 	data[3] 	0
scalar tiger_cost_network.node[3].content_store 	p_hit[3] 	-nan
scalar tiger_cost_network.node[3].content_store 	hits[3] 	0
scalar tiger_cost_network.node[3].content_store 	misses[3] 	0
scalar tiger_cost_network.node[3].content_store 	decision_yes[3] 	0
scalar tiger_cost_network.node[3].content_store 	decision_no[3] 	0
scalar tiger_cost_network.node[3].content_store 	decision_ratio[3] 	0
scalar tiger_cost_network.node[4].core_layer 	interests[4] 	0
scalar tiger_cost_network.node[4].core_layer 	data[4] 	0
scalar tiger_cost_network.node[4].content_store 	p_hit[4] 	-nan
scalar tiger_cost_network.node[4].content_store 	hits[4] 	0
scalar tiger_cost_network.node[4].content_store 	misses[4] 	0
scalar tiger_cost_network.node[4].content_store 	decision_yes[4] 	0
scalar tiger_cost_network.node[4].content_store 	decision_no[4] 	0
scalar tiger_cost_network.node[4].content_store 	decision_ratio[4] 	0
scalar tiger_cost_network.node[5].core_layer 	interests[5] 	104569
scalar tiger_cost_network.node[5].core_layer 	repo_load[5] 	97294
scalar tiger_cost_network.node[5].core_layer 	data[5] 	0
scalar tiger_cost_network.node[5].content_store 	p_hit[5] 	0.069571287857778
scalar tiger_cost_network.node[5].content_store 	hits[5] 	7275
scalar tiger_cost_network.node[5].content_store 	misses[5] 	97294
scalar tiger_cost_network.node[5].content_store 	decision_yes[5] 	994
scalar tiger_cost_network.node[5].content_store 	decision_no[5] 	96300
scalar tiger_cost_network.node[5].content_store 	decision_ratio[5] 	0.010216457335499
scalar tiger_cost_network.node[6].core_layer 	interests[6] 	0
scalar tiger_cost_network.node[6].core_layer 	data[6] 	0
scalar tiger_cost_network.node[6].content_store 	p_hit[6] 	-nan
scalar tiger_cost_network.node[6].content_store 	hits[6] 	0
scalar tiger_cost_network.node[6].content_store 	misses[6] 	0
scalar tiger_cost_network.node[6].content_store 	decision_yes[6] 	0
scalar tiger_cost_network.node[6].content_store 	decision_no[6] 	0
scalar tiger_cost_network.node[6].content_store 	decision_ratio[6] 	0
scalar tiger_cost_network.node[7].core_layer 	interests[7] 	39135
scalar tiger_cost_network.node[7].core_layer 	data[7] 	34535
scalar tiger_cost_network.node[7].content_store 	p_hit[7] 	0.11754184234062
scalar tiger_cost_network.node[7].content_store 	hits[7] 	4600
scalar tiger_cost_network.node[7].content_store 	misses[7] 	34535
scalar tiger_cost_network.node[7].content_store 	decision_yes[7] 	331
scalar tiger_cost_network.node[7].content_store 	decision_no[7] 	34204
scalar tiger_cost_network.node[7].content_store 	decision_ratio[7] 	0.009584479513537
scalar tiger_cost_network.node[8].core_layer 	interests[8] 	100497
scalar tiger_cost_network.node[8].core_layer 	repo_load[8] 	95023
scalar tiger_cost_network.node[8].core_layer 	data[8] 	0
scalar tiger_cost_network.node[8].content_store 	p_hit[8] 	0.054469287640427
scalar tiger_cost_network.node[8].content_store 	hits[8] 	5474
scalar tiger_cost_network.node[8].content_store 	misses[8] 	95023
scalar tiger_cost_network.node[8].content_store 	decision_yes[8] 	1013
scalar tiger_cost_network.node[8].content_store 	decision_no[8] 	94010
scalar tiger_cost_network.node[8].content_store 	decision_ratio[8] 	0.010660576912958
scalar tiger_cost_network.node[9].core_layer 	interests[9] 	0
scalar tiger_cost_network.node[9].core_layer 	data[9] 	0
scalar tiger_cost_network.node[9].content_store 	p_hit[9] 	-nan
scalar tiger_cost_network.node[9].content_store 	hits[9] 	0
scalar tiger_cost_network.node[9].content_store 	misses[9] 	0
scalar tiger_cost_network.node[9].content_store 	decision_yes[9] 	0
scalar tiger_cost_network.node[9].content_store 	decision_no[9] 	0
scalar tiger_cost_network.node[9].content_store 	decision_ratio[9] 	0
scalar tiger_cost_network.node[10].core_layer 	interests[10] 	39782
scalar tiger_cost_network.node[10].core_layer 	data[10] 	34633
scalar tiger_cost_network.node[10].content_store 	p_hit[10] 	0.12943039565633
scalar tiger_cost_network.node[10].content_store 	hits[10] 	5149
scalar tiger_cost_network.node[10].content_store 	misses[10] 	34633
scalar tiger_cost_network.node[10].content_store 	decision_yes[10] 	356
scalar tiger_cost_network.node[10].content_store 	decision_no[10] 	34277
scalar tiger_cost_network.node[10].content_store 	decision_ratio[10] 	0.010279213466925
scalar tiger_cost_network.node[11].core_layer 	interests[11] 	179915
scalar tiger_cost_network.node[11].core_layer 	data[11] 	120062
scalar tiger_cost_network.node[11].content_store 	p_hit[11] 	0.33265708806937
scalar tiger_cost_network.node[11].content_store 	hits[11] 	59850
scalar tiger_cost_network.node[11].content_store 	misses[11] 	120065
scalar tiger_cost_network.node[11].content_store 	decision_yes[11] 	1243
scalar tiger_cost_network.node[11].content_store 	decision_no[11] 	118819
scalar tiger_cost_network.node[11].content_store 	decision_ratio[11] 	0.010352984291449
scalar tiger_cost_network.node[12].core_layer 	interests[12] 	0
scalar tiger_cost_network.node[12].core_layer 	data[12] 	0
scalar tiger_cost_network.node[12].content_store 	p_hit[12] 	-nan
scalar tiger_cost_network.node[12].content_store 	hits[12] 	0
scalar tiger_cost_network.node[12].content_store 	misses[12] 	0
scalar tiger_cost_network.node[12].content_store 	decision_yes[12] 	0
scalar tiger_cost_network.node[12].content_store 	decision_no[12] 	0
scalar tiger_cost_network.node[12].content_store 	decision_ratio[12] 	0
scalar tiger_cost_network.node[13].core_layer 	interests[13] 	0
scalar tiger_cost_network.node[13].core_layer 	data[13] 	0
scalar tiger_cost_network.node[13].content_store 	p_hit[13] 	-nan
scalar tiger_cost_network.node[13].content_store 	hits[13] 	0
scalar tiger_cost_network.node[13].content_store 	misses[13] 	0
scalar tiger_cost_network.node[13].content_store 	decision_yes[13] 	0
scalar tiger_cost_network.node[13].content_store 	decision_no[13] 	0
scalar tiger_cost_network.node[13].content_store 	decision_ratio[13] 	0
scalar tiger_cost_network.node[14].core_layer 	interests[14] 	0
scalar tiger_cost_network.node[14].core_layer 	data[14] 	0
scalar tiger_cost_network.node[14].content_store 	p_hit[14] 	-nan
scalar tiger_cost_network.node[14].content_store 	hits[14] 	0
scalar tiger_cost_network.node[14].content_store 	misses[14] 	0
scalar tiger_cost_network.node[14].content_store 	decision_yes[14] 	0
scalar tiger_cost_network.node[14].content_store 	decision_no[14] 	0
scalar tiger_cost_network.node[14].content_store 	decision_ratio[14] 	0
scalar tiger_cost_network.node[15].core_layer 	interests[15] 	0
scalar tiger_cost_network.node[15].core_layer 	data[15] 	0
scalar tiger_cost_network.node[15].content_store 	p_hit[15] 	-nan
scalar tiger_cost_network.node[15].content_store 	hits[15] 	0
scalar tiger_cost_network.node[15].content_store 	misses[15] 	0
scalar tiger_cost_network.node[15].content_store 	decision_yes[15] 	0
scalar tiger_cost_network.node[15].content_store 	decision_no[15] 	0
scalar tiger_cost_network.node[15].content_store 	decision_ratio[15] 	0
scalar tiger_cost_network.node[16].core_layer 	interests[16] 	0
scalar tiger_cost_network.node[16].core_layer 	data[16] 	0
scalar tiger_cost_network.node[16].content_store 	p_hit[16] 	-nan
scalar tiger_cost_network.node[16].content_store 	hits[16] 	0
scalar tiger_cost_network.node[16].content_store 	misses[16] 	0
scalar tiger_cost_network.node[16].content_store 	decision_yes[16] 	0
scalar tiger_cost_network.node[16].content_store 	decision_no[16] 	0
scalar tiger_cost_network.node[16].content_store 	decision_ratio[16] 	0
scalar tiger_cost_network.node[17].core_layer 	interests[17] 	117332
scalar tiger_cost_network.node[17].core_layer 	data[17] 	104569
scalar tiger_cost_network.node[17].content_store 	p_hit[17] 	0.10877680428187
scalar tiger_cost_network.node[17].content_store 	hits[17] 	12763
scalar tiger_cost_network.node[17].content_store 	misses[17] 	104569
scalar tiger_cost_network.node[17].content_store 	decision_yes[17] 	1031
scalar tiger_cost_network.node[17].content_store 	decision_no[17] 	103538
scalar tiger_cost_network.node[17].content_store 	decision_ratio[17] 	0.0098595185953772
scalar tiger_cost_network.node[18].core_layer 	interests[18] 	295399
scalar tiger_cost_network.node[18].core_layer 	data[18] 	233698
scalar tiger_cost_network.node[18].content_store 	p_hit[18] 	0.20883956953138
scalar tiger_cost_network.node[18].content_store 	hits[18] 	61691
scalar tiger_cost_network.node[18].content_store 	misses[18] 	233708
scalar tiger_cost_network.node[18].content_store 	decision_yes[18] 	2351
scalar tiger_cost_network.node[18].content_store 	decision_no[18] 	231347
scalar tiger_cost_network.node[18].content_store 	decision_ratio[18] 	0.01005999195543
scalar tiger_cost_network.node[19].core_layer 	interests[19] 	179459
scalar tiger_cost_network.node[19].core_layer 	data[19] 	119759
scalar tiger_cost_network.node[19].content_store 	p_hit[19] 	0.33265536975019
scalar tiger_cost_network.node[19].content_store 	hits[19] 	59698
scalar tiger_cost_network.node[19].content_store 	misses[19] 	119761
scalar tiger_cost_network.node[19].content_store 	decision_yes[19] 	1258
scalar tiger_cost_network.node[19].content_store 	decision_no[19] 	118501
scalar tiger_cost_network.node[19].content_store 	decision_ratio[19] 	0.010504429729707
scalar tiger_cost_network.node[20].core_layer 	interests[20] 	154821
scalar tiger_cost_network.node[20].core_layer 	repo_load[20] 	101965
scalar tiger_cost_network.node[20].core_layer 	data[20] 	39135
scalar tiger_cost_network.node[20].content_store 	p_hit[20] 	0.088624928142823
scalar tiger_cost_network.node[20].content_store 	hits[20] 	13721
scalar tiger_cost_network.node[20].content_store 	misses[20] 	141100
scalar tiger_cost_network.node[20].content_store 	decision_yes[20] 	1418
scalar tiger_cost_network.node[20].content_store 	decision_no[20] 	139682
scalar tiger_cost_network.node[20].content_store 	decision_ratio[20] 	0.010049610205528
scalar tiger_cost_network.node[21].core_layer 	interests[21] 	39388
scalar tiger_cost_network.node[21].core_layer 	data[21] 	34042
scalar tiger_cost_network.node[21].content_store 	p_hit[21] 	0.13572661724383
scalar tiger_cost_network.node[21].content_store 	hits[21] 	5346
scalar tiger_cost_network.node[21].content_store 	misses[21] 	34042
scalar tiger_cost_network.node[21].content_store 	decision_yes[21] 	378
scalar tiger_cost_network.node[21].content_store 	decision_no[21] 	33664
scalar tiger_cost_network.node[21].content_store 	decision_ratio[21] 	0.01110393043887
scalar tiger_cost_network.client[11] 	hdistance[11] 	2.5502801369558
scalar tiger_cost_network.client[11] 	downloads[11] 	179912
scalar tiger_cost_network.client[11] 	avg_time[11] 	0.000511148321
scalar tiger_cost_network.client[18] 	hdistance[18] 	1.8612079880934
scalar tiger_cost_network.client[18] 	downloads[18] 	180068
scalar tiger_cost_network.client[18] 	avg_time[18] 	0.000308426391
scalar tiger_cost_network.client[19] 	hdistance[19] 	1.8171093911076
scalar tiger_cost_network.client[19] 	downloads[19] 	179457
scalar tiger_cost_network.client[19] 	avg_time[19] 	0.000186318398
