version 2
run General-10-20140904-11:47:33-24214
attr D lce
attr F spr
attr R lru
attr a 1
attr configname General
attr csize 1e3
attr ctlg 1e5
attr datetime 20140904-11:47:33
attr experiment General
attr inifile omnetpp.ini
attr iterationvars "$net=abilene_cost, $rep=7, $priceratiovalue=10, $weights=0.333_0.333_0.334, $lambda=100, $a=1, $ctlg=1e5, $F=spr, $ttl=10, $D=lce, $xi=1, $R=lru, $csize=1e3, $pricebits=0, $window=60, $variance=0.05, $mytime=1800"
attr iterationvars2 "$net=abilene_cost, $rep=7, $priceratiovalue=10, $weights=0.333_0.333_0.334, $lambda=100, $a=1, $ctlg=1e5, $F=spr, $ttl=10, $D=lce, $xi=1, $R=lru, $csize=1e3, $pricebits=0, $window=60, $variance=0.05, $mytime=1800, $repetition=0"
attr lambda 100
attr measurement "$net=abilene_cost, $rep=7, $priceratiovalue=10, $weights=0.333_0.333_0.334, $lambda=100, $a=1, $ctlg=1e5, $F=spr, $ttl=10, $D=lce, $xi=1, $R=lru, $csize=1e3, $pricebits=0, $window=60, $variance=0.05, $mytime=1800"
attr mytime 1800
attr net abilene_cost
attr network networks.${net=abilene_cost}_network
attr pricebits 0
attr priceratiovalue 10
attr processid 24214
attr rep 7
attr repetition 0
attr replication #0
attr resultdir results
attr runnumber 10
attr seedset 7
attr ttl 10
attr variance 0.05
attr weights 0.333_0.333_0.334
attr window 60
attr xi 1

scalar . 	a 	1
scalar . 	csize 	1e3
scalar . 	ctlg 	1e5
scalar . 	lambda 	100
scalar . 	mytime 	1800
scalar . 	pricebits 	0
scalar . 	priceratiovalue 	10
scalar . 	rep 	7
scalar . 	ttl 	10
scalar . 	variance 	0.05
scalar . 	window 	60
scalar . 	xi 	1
scalar abilene_cost_network.content_distribution 	repo-0 	5
scalar abilene_cost_network.content_distribution 	repo-1 	4
scalar abilene_cost_network.content_distribution 	repo-2 	0
scalar abilene_cost_network.content_distribution 	client-0 	6
scalar abilene_cost_network.content_distribution 	client-1 	4
scalar abilene_cost_network.content_distribution 	client-2 	8
scalar abilene_cost_network.content_distribution 	repo-0_card 	33104
scalar abilene_cost_network.content_distribution 	repo-0_price 	10
scalar abilene_cost_network.content_distribution 	repo-1_card 	33509
scalar abilene_cost_network.content_distribution 	repo-1_price 	0
scalar abilene_cost_network.content_distribution 	repo-2_card 	33387
scalar abilene_cost_network.content_distribution 	repo-2_price 	1
scalar abilene_cost_network.statistics 	repo_popularity[0] 	0.32830784336445
scalar abilene_cost_network.statistics 	repo_popularity[1] 	0.32988541312008
scalar abilene_cost_network.statistics 	repo_popularity[2] 	0.34180674351549
scalar abilene_cost_network.statistics 	stabilization_time 	36060
scalar abilene_cost_network.statistics 	p_hit 	0.12825072860423
scalar abilene_cost_network.statistics 	interests 	133162.45454545
scalar abilene_cost_network.statistics 	data 	84098.272727273
scalar abilene_cost_network.statistics 	hdistance 	2.367146264654
scalar abilene_cost_network.statistics 	avg_time 	0.009959849826
scalar abilene_cost_network.statistics 	downloads 	539190
scalar abilene_cost_network.statistics 	total_cost 	1281692
scalar abilene_cost_network.statistics 	total_replicas 	100000
scalar abilene_cost_network.statistics 	inner_hit 	0.34885105435932
scalar abilene_cost_network.statistics 	interests_sent 	539709
scalar abilene_cost_network.node[0].core_layer 	interests[0] 	119285
scalar abilene_cost_network.node[0].core_layer 	repo_load[0] 	119122
scalar abilene_cost_network.node[0].core_layer 	data[0] 	0
scalar abilene_cost_network.node[0].core_layer 	repo_int[0] 	351093
scalar abilene_cost_network.node[0].content_store 	p_hit[0] 	0.0013664752483548
scalar abilene_cost_network.node[0].content_store 	hits[0] 	163
scalar abilene_cost_network.node[0].content_store 	misses[0] 	119122
scalar abilene_cost_network.node[0].content_store 	decision_yes[0] 	119122
scalar abilene_cost_network.node[0].content_store 	decision_no[0] 	0
scalar abilene_cost_network.node[0].content_store 	decision_ratio[0] 	1
scalar abilene_cost_network.node[1].core_layer 	interests[1] 	121985
scalar abilene_cost_network.node[1].core_layer 	data[1] 	119285
scalar abilene_cost_network.node[1].content_store 	p_hit[1] 	0.02213386891831
scalar abilene_cost_network.node[1].content_store 	hits[1] 	2700
scalar abilene_cost_network.node[1].content_store 	misses[1] 	119285
scalar abilene_cost_network.node[1].content_store 	decision_yes[1] 	119285
scalar abilene_cost_network.node[1].content_store 	decision_no[1] 	0
scalar abilene_cost_network.node[1].content_store 	decision_ratio[1] 	1
scalar abilene_cost_network.node[2].core_layer 	interests[2] 	169850
scalar abilene_cost_network.node[2].core_layer 	data[2] 	162568
scalar abilene_cost_network.node[2].content_store 	p_hit[2] 	0.042078304386223
scalar abilene_cost_network.node[2].content_store 	hits[2] 	7147
scalar abilene_cost_network.node[2].content_store 	misses[2] 	162703
scalar abilene_cost_network.node[2].content_store 	decision_yes[2] 	162568
scalar abilene_cost_network.node[2].content_store 	decision_no[2] 	0
scalar abilene_cost_network.node[2].content_store 	decision_ratio[2] 	1
scalar abilene_cost_network.node[3].core_layer 	interests[3] 	132651
scalar abilene_cost_network.node[3].core_layer 	data[3] 	123819
scalar abilene_cost_network.node[3].content_store 	p_hit[3] 	0.0658645618955
scalar abilene_cost_network.node[3].content_store 	hits[3] 	8737
scalar abilene_cost_network.node[3].content_store 	misses[3] 	123914
scalar abilene_cost_network.node[3].content_store 	decision_yes[3] 	123819
scalar abilene_cost_network.node[3].content_store 	decision_no[3] 	0
scalar abilene_cost_network.node[3].content_store 	decision_ratio[3] 	1
scalar abilene_cost_network.node[4].core_layer 	interests[4] 	260467
scalar abilene_cost_network.node[4].core_layer 	repo_load[4] 	115714
scalar abilene_cost_network.node[4].core_layer 	data[4] 	93804
scalar abilene_cost_network.node[4].content_store 	p_hit[4] 	0.19489609048363
scalar abilene_cost_network.node[4].content_store 	hits[4] 	50764
scalar abilene_cost_network.node[4].content_store 	misses[4] 	209703
scalar abilene_cost_network.node[4].content_store 	decision_yes[4] 	209518
scalar abilene_cost_network.node[4].content_store 	decision_no[4] 	0
scalar abilene_cost_network.node[4].content_store 	decision_ratio[4] 	1
scalar abilene_cost_network.node[5].core_layer 	interests[5] 	168267
scalar abilene_cost_network.node[5].core_layer 	repo_load[5] 	116257
scalar abilene_cost_network.node[5].core_layer 	data[5] 	40993
scalar abilene_cost_network.node[5].content_store 	p_hit[5] 	0.065479268068011
scalar abilene_cost_network.node[5].content_store 	hits[5] 	11018
scalar abilene_cost_network.node[5].content_store 	misses[5] 	157249
scalar abilene_cost_network.node[5].content_store 	decision_yes[5] 	157250
scalar abilene_cost_network.node[5].content_store 	decision_no[5] 	0
scalar abilene_cost_network.node[5].content_store 	decision_ratio[5] 	1
scalar abilene_cost_network.node[6].core_layer 	interests[6] 	221564
scalar abilene_cost_network.node[6].core_layer 	data[6] 	169612
scalar abilene_cost_network.node[6].content_store 	p_hit[6] 	0.23384214041992
scalar abilene_cost_network.node[6].content_store 	hits[6] 	51811
scalar abilene_cost_network.node[6].content_store 	misses[6] 	169753
scalar abilene_cost_network.node[6].content_store 	decision_yes[6] 	169612
scalar abilene_cost_network.node[6].content_store 	decision_no[6] 	0
scalar abilene_cost_network.node[6].content_store 	decision_ratio[6] 	1
scalar abilene_cost_network.node[7].core_layer 	interests[7] 	90243
scalar abilene_cost_network.node[7].core_layer 	data[7] 	85514
scalar abilene_cost_network.node[7].content_store 	p_hit[7] 	0.052391875270104
scalar abilene_cost_network.node[7].content_store 	hits[7] 	4728
scalar abilene_cost_network.node[7].content_store 	misses[7] 	85515
scalar abilene_cost_network.node[7].content_store 	decision_yes[7] 	85514
scalar abilene_cost_network.node[7].content_store 	decision_no[7] 	0
scalar abilene_cost_network.node[7].content_store 	decision_ratio[7] 	1
scalar abilene_cost_network.node[8].core_layer 	interests[8] 	180475
scalar abilene_cost_network.node[8].core_layer 	data[8] 	129486
scalar abilene_cost_network.node[8].content_store 	p_hit[8] 	0.28143510181466
scalar abilene_cost_network.node[8].content_store 	hits[8] 	50792
scalar abilene_cost_network.node[8].content_store 	misses[8] 	129683
scalar abilene_cost_network.node[8].content_store 	decision_yes[8] 	129486
scalar abilene_cost_network.node[8].content_store 	decision_no[8] 	0
scalar abilene_cost_network.node[8].content_store 	decision_ratio[8] 	1
scalar abilene_cost_network.node[9].core_layer 	interests[9] 	0
scalar abilene_cost_network.node[9].core_layer 	data[9] 	0
scalar abilene_cost_network.node[9].content_store 	p_hit[9] 	-nan
scalar abilene_cost_network.node[9].content_store 	hits[9] 	0
scalar abilene_cost_network.node[9].content_store 	misses[9] 	0
scalar abilene_cost_network.node[9].content_store 	decision_yes[9] 	0
scalar abilene_cost_network.node[9].content_store 	decision_no[9] 	0
scalar abilene_cost_network.node[9].content_store 	decision_ratio[9] 	0
scalar abilene_cost_network.node[10].core_layer 	interests[10] 	0
scalar abilene_cost_network.node[10].core_layer 	data[10] 	0
scalar abilene_cost_network.node[10].content_store 	p_hit[10] 	-nan
scalar abilene_cost_network.node[10].content_store 	hits[10] 	0
scalar abilene_cost_network.node[10].content_store 	misses[10] 	0
scalar abilene_cost_network.node[10].content_store 	decision_yes[10] 	0
scalar abilene_cost_network.node[10].content_store 	decision_no[10] 	0
scalar abilene_cost_network.node[10].content_store 	decision_ratio[10] 	0
scalar abilene_cost_network.client[4] 	hdistance[4] 	1.8832878794653
scalar abilene_cost_network.client[4] 	downloads[4] 	178936
scalar abilene_cost_network.client[4] 	avg_time[4] 	0.007401924468
scalar abilene_cost_network.client[4] 	interests_sent[4] 	179121
scalar abilene_cost_network.client[6] 	hdistance[6] 	2.5059952438103
scalar abilene_cost_network.client[6] 	downloads[6] 	179976
scalar abilene_cost_network.client[6] 	avg_time[6] 	0.010167834338
scalar abilene_cost_network.client[6] 	interests_sent[6] 	180113
scalar abilene_cost_network.client[8] 	hdistance[8] 	2.7121556706864
scalar abilene_cost_network.client[8] 	downloads[8] 	180278
scalar abilene_cost_network.client[8] 	avg_time[8] 	0.012309790673
scalar abilene_cost_network.client[8] 	interests_sent[8] 	180475
