version 2
run General-10-20140904-10:56:29-10932
attr D lce
attr F spr
attr R lru
attr a 1
attr configname General
attr csize 1e3
attr ctlg 1e5
attr datetime 20140904-10:56:29
attr experiment General
attr inifile omnetpp.ini
attr iterationvars "$net=abilene_cost, $rep=11, $priceratiovalue=10, $weights=0.333_0.333_0.334, $lambda=100, $a=1, $ctlg=1e5, $F=spr, $ttl=10, $D=lce, $xi=1, $R=lru, $csize=1e3, $pricebits=0, $window=60, $variance=0.05, $mytime=1800"
attr iterationvars2 "$net=abilene_cost, $rep=11, $priceratiovalue=10, $weights=0.333_0.333_0.334, $lambda=100, $a=1, $ctlg=1e5, $F=spr, $ttl=10, $D=lce, $xi=1, $R=lru, $csize=1e3, $pricebits=0, $window=60, $variance=0.05, $mytime=1800, $repetition=0"
attr lambda 100
attr measurement "$net=abilene_cost, $rep=11, $priceratiovalue=10, $weights=0.333_0.333_0.334, $lambda=100, $a=1, $ctlg=1e5, $F=spr, $ttl=10, $D=lce, $xi=1, $R=lru, $csize=1e3, $pricebits=0, $window=60, $variance=0.05, $mytime=1800"
attr mytime 1800
attr net abilene_cost
attr network networks.${net=abilene_cost}_network
attr pricebits 0
attr priceratiovalue 10
attr processid 10932
attr rep 11
attr repetition 0
attr replication #0
attr resultdir results
attr runnumber 10
attr seedset 11
attr ttl 10
attr variance 0.05
attr weights 0.333_0.333_0.334
attr window 60
attr xi 1

scalar . 	a 	1
scalar . 	csize 	1e3
scalar . 	ctlg 	1e5
scalar . 	lambda 	100
scalar . 	mytime 	1800
scalar . 	pricebits 	0
scalar . 	priceratiovalue 	10
scalar . 	rep 	11
scalar . 	ttl 	10
scalar . 	variance 	0.05
scalar . 	window 	60
scalar . 	xi 	1
scalar abilene_cost_network.content_distribution 	repo-0 	1
scalar abilene_cost_network.content_distribution 	repo-1 	10
scalar abilene_cost_network.content_distribution 	repo-2 	9
scalar abilene_cost_network.content_distribution 	client-0 	4
scalar abilene_cost_network.content_distribution 	client-1 	3
scalar abilene_cost_network.content_distribution 	client-2 	5
scalar abilene_cost_network.content_distribution 	repo-0_card 	33091
scalar abilene_cost_network.content_distribution 	repo-0_price 	10
scalar abilene_cost_network.content_distribution 	repo-1_card 	33552
scalar abilene_cost_network.content_distribution 	repo-1_price 	1
scalar abilene_cost_network.content_distribution 	repo-2_card 	33357
scalar abilene_cost_network.content_distribution 	repo-2_price 	0
scalar abilene_cost_network.statistics 	repo_popularity[0] 	0.34138276193578
scalar abilene_cost_network.statistics 	repo_popularity[1] 	0.30435585390103
scalar abilene_cost_network.statistics 	repo_popularity[2] 	0.3542613841632
scalar abilene_cost_network.statistics 	stabilization_time 	36060
scalar abilene_cost_network.statistics 	p_hit 	0.10256218424256
scalar abilene_cost_network.statistics 	interests 	170117.63636364
scalar abilene_cost_network.statistics 	data 	121100.90909091
scalar abilene_cost_network.statistics 	hdistance 	3.1207209864332
scalar abilene_cost_network.statistics 	avg_time 	0.015442316589
scalar abilene_cost_network.statistics 	downloads 	538320
scalar abilene_cost_network.statistics 	total_cost 	1296186
scalar abilene_cost_network.statistics 	total_replicas 	100000
scalar abilene_cost_network.statistics 	inner_hit 	0.3579395155298
scalar abilene_cost_network.statistics 	interests_sent 	539184
scalar abilene_cost_network.node[0].core_layer 	interests[0] 	0
scalar abilene_cost_network.node[0].core_layer 	data[0] 	0
scalar abilene_cost_network.node[0].core_layer 	repo_int[0] 	345634
scalar abilene_cost_network.node[0].content_store 	p_hit[0] 	-nan
scalar abilene_cost_network.node[0].content_store 	hits[0] 	0
scalar abilene_cost_network.node[0].content_store 	misses[0] 	0
scalar abilene_cost_network.node[0].content_store 	decision_yes[0] 	0
scalar abilene_cost_network.node[0].content_store 	decision_no[0] 	0
scalar abilene_cost_network.node[0].content_store 	decision_ratio[0] 	0
scalar abilene_cost_network.node[1].core_layer 	interests[1] 	244489
scalar abilene_cost_network.node[1].core_layer 	repo_load[1] 	118347
scalar abilene_cost_network.node[1].core_layer 	data[1] 	122405
scalar abilene_cost_network.node[1].content_store 	p_hit[1] 	0.015280851081235
scalar abilene_cost_network.node[1].content_store 	hits[1] 	3736
scalar abilene_cost_network.node[1].content_store 	misses[1] 	240753
scalar abilene_cost_network.node[1].content_store 	decision_yes[1] 	240752
scalar abilene_cost_network.node[1].content_store 	decision_no[1] 	0
scalar abilene_cost_network.node[1].content_store 	decision_ratio[1] 	1
scalar abilene_cost_network.node[2].core_layer 	interests[2] 	338284
scalar abilene_cost_network.node[2].core_layer 	data[2] 	337587
scalar abilene_cost_network.node[2].content_store 	p_hit[2] 	0.0020603989547244
scalar abilene_cost_network.node[2].content_store 	hits[2] 	697
scalar abilene_cost_network.node[2].content_store 	misses[2] 	337587
scalar abilene_cost_network.node[2].content_store 	decision_yes[2] 	337587
scalar abilene_cost_network.node[2].content_store 	decision_no[2] 	0
scalar abilene_cost_network.node[2].content_store 	decision_ratio[2] 	1
scalar abilene_cost_network.node[3].core_layer 	interests[3] 	391203
scalar abilene_cost_network.node[3].core_layer 	data[3] 	338283
scalar abilene_cost_network.node[3].content_store 	p_hit[3] 	0.13283129219357
scalar abilene_cost_network.node[3].content_store 	hits[3] 	51964
scalar abilene_cost_network.node[3].content_store 	misses[3] 	339239
scalar abilene_cost_network.node[3].content_store 	decision_yes[3] 	338283
scalar abilene_cost_network.node[3].content_store 	decision_no[3] 	0
scalar abilene_cost_network.node[3].content_store 	decision_ratio[3] 	1
scalar abilene_cost_network.node[4].core_layer 	interests[4] 	264187
scalar abilene_cost_network.node[4].core_layer 	data[4] 	212101
scalar abilene_cost_network.node[4].content_store 	p_hit[4] 	0.19561522709293
scalar abilene_cost_network.node[4].content_store 	hits[4] 	51679
scalar abilene_cost_network.node[4].content_store 	misses[4] 	212508
scalar abilene_cost_network.node[4].content_store 	decision_yes[4] 	212101
scalar abilene_cost_network.node[4].content_store 	decision_no[4] 	0
scalar abilene_cost_network.node[4].content_store 	decision_ratio[4] 	1
scalar abilene_cost_network.node[5].core_layer 	interests[5] 	179645
scalar abilene_cost_network.node[5].core_layer 	data[5] 	129039
scalar abilene_cost_network.node[5].content_store 	p_hit[5] 	0.28064237802332
scalar abilene_cost_network.node[5].content_store 	hits[5] 	50416
scalar abilene_cost_network.node[5].content_store 	misses[5] 	129229
scalar abilene_cost_network.node[5].content_store 	decision_yes[5] 	129039
scalar abilene_cost_network.node[5].content_store 	decision_no[5] 	0
scalar abilene_cost_network.node[5].content_store 	decision_ratio[5] 	1
scalar abilene_cost_network.node[6].core_layer 	interests[6] 	45291
scalar abilene_cost_network.node[6].core_layer 	data[6] 	38885
scalar abilene_cost_network.node[6].content_store 	p_hit[6] 	0.14146298381577
scalar abilene_cost_network.node[6].content_store 	hits[6] 	6407
scalar abilene_cost_network.node[6].content_store 	misses[6] 	38884
scalar abilene_cost_network.node[6].content_store 	decision_yes[6] 	38885
scalar abilene_cost_network.node[6].content_store 	decision_no[6] 	0
scalar abilene_cost_network.node[6].content_store 	decision_ratio[6] 	1
scalar abilene_cost_network.node[7].core_layer 	interests[7] 	38884
scalar abilene_cost_network.node[7].core_layer 	data[7] 	38496
scalar abilene_cost_network.node[7].content_store 	p_hit[7] 	0.010004114803004
scalar abilene_cost_network.node[7].content_store 	hits[7] 	389
scalar abilene_cost_network.node[7].content_store 	misses[7] 	38495
scalar abilene_cost_network.node[7].content_store 	decision_yes[7] 	38496
scalar abilene_cost_network.node[7].content_store 	decision_no[7] 	0
scalar abilene_cost_network.node[7].content_store 	decision_ratio[7] 	1
scalar abilene_cost_network.node[8].core_layer 	interests[8] 	131593
scalar abilene_cost_network.node[8].core_layer 	data[8] 	115314
scalar abilene_cost_network.node[8].content_store 	p_hit[8] 	0.12314484813022
scalar abilene_cost_network.node[8].content_store 	hits[8] 	16205
scalar abilene_cost_network.node[8].content_store 	misses[8] 	115388
scalar abilene_cost_network.node[8].content_store 	decision_yes[8] 	115314
scalar abilene_cost_network.node[8].content_store 	decision_no[8] 	0
scalar abilene_cost_network.node[8].content_store 	decision_ratio[8] 	1
scalar abilene_cost_network.node[9].core_layer 	interests[9] 	115313
scalar abilene_cost_network.node[9].core_layer 	repo_load[9] 	114571
scalar abilene_cost_network.node[9].core_layer 	data[9] 	0
scalar abilene_cost_network.node[9].content_store 	p_hit[9] 	0.0064346604459168
scalar abilene_cost_network.node[9].content_store 	hits[9] 	742
scalar abilene_cost_network.node[9].content_store 	misses[9] 	114571
scalar abilene_cost_network.node[9].content_store 	decision_yes[9] 	114571
scalar abilene_cost_network.node[9].content_store 	decision_no[9] 	0
scalar abilene_cost_network.node[9].content_store 	decision_ratio[9] 	1
scalar abilene_cost_network.node[10].core_layer 	interests[10] 	122405
scalar abilene_cost_network.node[10].core_layer 	repo_load[10] 	112716
scalar abilene_cost_network.node[10].core_layer 	data[10] 	0
scalar abilene_cost_network.node[10].content_store 	p_hit[10] 	0.079155263265389
scalar abilene_cost_network.node[10].content_store 	hits[10] 	9689
scalar abilene_cost_network.node[10].content_store 	misses[10] 	112716
scalar abilene_cost_network.node[10].content_store 	decision_yes[10] 	112716
scalar abilene_cost_network.node[10].content_store 	decision_no[10] 	0
scalar abilene_cost_network.node[10].content_store 	decision_ratio[10] 	1
scalar abilene_cost_network.client[3] 	hdistance[3] 	2.6460764396089
scalar abilene_cost_network.client[3] 	downloads[3] 	178677
scalar abilene_cost_network.client[3] 	avg_time[3] 	0.014175096325
scalar abilene_cost_network.client[3] 	interests_sent[3] 	179100
scalar abilene_cost_network.client[4] 	hdistance[4] 	3.2355983750305
scalar abilene_cost_network.client[4] 	downloads[4] 	180188
scalar abilene_cost_network.client[4] 	avg_time[4] 	0.014654037335
scalar abilene_cost_network.client[4] 	interests_sent[4] 	180439
scalar abilene_cost_network.client[5] 	hdistance[5] 	3.4804881446602
scalar abilene_cost_network.client[5] 	downloads[5] 	179455
scalar abilene_cost_network.client[5] 	avg_time[5] 	0.017497816108
scalar abilene_cost_network.client[5] 	interests_sent[5] 	179645
