version 2
run General-6-20140904-11:12:00-24379
attr D lce
attr F spr
attr R lru
attr a 1
attr configname General
attr csize 1e3
attr ctlg 1e5
attr datetime 20140904-11:12:00
attr experiment General
attr inifile omnetpp.ini
attr iterationvars "$net=abilene_cost, $rep=2, $priceratiovalue=10, $weights=0.333_0.333_0.334, $lambda=100, $a=1, $ctlg=1e5, $F=spr, $ttl=10, $D=lce, $xi=1, $R=lru, $csize=1e3, $pricebits=0, $window=60, $variance=0.05, $mytime=1800"
attr iterationvars2 "$net=abilene_cost, $rep=2, $priceratiovalue=10, $weights=0.333_0.333_0.334, $lambda=100, $a=1, $ctlg=1e5, $F=spr, $ttl=10, $D=lce, $xi=1, $R=lru, $csize=1e3, $pricebits=0, $window=60, $variance=0.05, $mytime=1800, $repetition=0"
attr lambda 100
attr measurement "$net=abilene_cost, $rep=2, $priceratiovalue=10, $weights=0.333_0.333_0.334, $lambda=100, $a=1, $ctlg=1e5, $F=spr, $ttl=10, $D=lce, $xi=1, $R=lru, $csize=1e3, $pricebits=0, $window=60, $variance=0.05, $mytime=1800"
attr mytime 1800
attr net abilene_cost
attr network networks.${net=abilene_cost}_network
attr pricebits 0
attr priceratiovalue 10
attr processid 24379
attr rep 2
attr repetition 0
attr replication #0
attr resultdir results
attr runnumber 6
attr seedset 2
attr ttl 10
attr variance 0.05
attr weights 0.333_0.333_0.334
attr window 60
attr xi 1

scalar . 	a 	1
scalar . 	csize 	1e3
scalar . 	ctlg 	1e5
scalar . 	lambda 	100
scalar . 	mytime 	1800
scalar . 	pricebits 	0
scalar . 	priceratiovalue 	10
scalar . 	rep 	2
scalar . 	ttl 	10
scalar . 	variance 	0.05
scalar . 	window 	60
scalar . 	xi 	1
scalar abilene_cost_network.content_distribution 	repo-0 	4
scalar abilene_cost_network.content_distribution 	repo-1 	9
scalar abilene_cost_network.content_distribution 	repo-2 	6
scalar abilene_cost_network.content_distribution 	client-0 	3
scalar abilene_cost_network.content_distribution 	client-1 	7
scalar abilene_cost_network.content_distribution 	client-2 	9
scalar abilene_cost_network.content_distribution 	repo-0_card 	33329
scalar abilene_cost_network.content_distribution 	repo-0_price 	1
scalar abilene_cost_network.content_distribution 	repo-1_card 	33052
scalar abilene_cost_network.content_distribution 	repo-1_price 	10
scalar abilene_cost_network.content_distribution 	repo-2_card 	33619
scalar abilene_cost_network.content_distribution 	repo-2_price 	0
scalar abilene_cost_network.statistics 	repo_popularity[0] 	0.33984204835506
scalar abilene_cost_network.statistics 	repo_popularity[1] 	0.39407385110283
scalar abilene_cost_network.statistics 	repo_popularity[2] 	0.26608410054213
scalar abilene_cost_network.statistics 	stabilization_time 	36060
scalar abilene_cost_network.statistics 	p_hit 	0.14626178689162
scalar abilene_cost_network.statistics 	interests 	118939.90909091
scalar abilene_cost_network.statistics 	data 	69856.818181818
scalar abilene_cost_network.statistics 	hdistance 	2.0706424037726
scalar abilene_cost_network.statistics 	avg_time 	0.01039608029
scalar abilene_cost_network.statistics 	downloads 	539251
scalar abilene_cost_network.statistics 	total_cost 	1346788
scalar abilene_cost_network.statistics 	total_replicas 	100000
scalar abilene_cost_network.statistics 	inner_hit 	0.3552019375022
scalar abilene_cost_network.statistics 	interests_sent 	539914
scalar abilene_cost_network.node[0].core_layer 	interests[0] 	0
scalar abilene_cost_network.node[0].core_layer 	data[0] 	0
scalar abilene_cost_network.node[0].core_layer 	repo_int[0] 	347708
scalar abilene_cost_network.node[0].content_store 	p_hit[0] 	-nan
scalar abilene_cost_network.node[0].content_store 	hits[0] 	0
scalar abilene_cost_network.node[0].content_store 	misses[0] 	0
scalar abilene_cost_network.node[0].content_store 	decision_yes[0] 	0
scalar abilene_cost_network.node[0].content_store 	decision_no[0] 	0
scalar abilene_cost_network.node[0].content_store 	decision_ratio[0] 	0
scalar abilene_cost_network.node[1].core_layer 	interests[1] 	0
scalar abilene_cost_network.node[1].core_layer 	data[1] 	0
scalar abilene_cost_network.node[1].content_store 	p_hit[1] 	-nan
scalar abilene_cost_network.node[1].content_store 	hits[1] 	0
scalar abilene_cost_network.node[1].content_store 	misses[1] 	0
scalar abilene_cost_network.node[1].content_store 	decision_yes[1] 	0
scalar abilene_cost_network.node[1].content_store 	decision_no[1] 	0
scalar abilene_cost_network.node[1].content_store 	decision_ratio[1] 	0
scalar abilene_cost_network.node[2].core_layer 	interests[2] 	91275
scalar abilene_cost_network.node[2].core_layer 	data[2] 	84251
scalar abilene_cost_network.node[2].content_store 	p_hit[2] 	0.076943303204601
scalar abilene_cost_network.node[2].content_store 	hits[2] 	7023
scalar abilene_cost_network.node[2].content_store 	misses[2] 	84252
scalar abilene_cost_network.node[2].content_store 	decision_yes[2] 	84251
scalar abilene_cost_network.node[2].content_store 	decision_no[2] 	0
scalar abilene_cost_network.node[2].content_store 	decision_ratio[2] 	1
scalar abilene_cost_network.node[3].core_layer 	interests[3] 	266357
scalar abilene_cost_network.node[3].core_layer 	data[3] 	208973
scalar abilene_cost_network.node[3].content_store 	p_hit[3] 	0.21473436027587
scalar abilene_cost_network.node[3].content_store 	hits[3] 	57196
scalar abilene_cost_network.node[3].content_store 	misses[3] 	209161
scalar abilene_cost_network.node[3].content_store 	decision_yes[3] 	208973
scalar abilene_cost_network.node[3].content_store 	decision_no[3] 	0
scalar abilene_cost_network.node[3].content_store 	decision_ratio[3] 	1
scalar abilene_cost_network.node[4].core_layer 	interests[4] 	118041
scalar abilene_cost_network.node[4].core_layer 	repo_load[4] 	111078
scalar abilene_cost_network.node[4].core_layer 	data[4] 	0
scalar abilene_cost_network.node[4].content_store 	p_hit[4] 	0.058987978753145
scalar abilene_cost_network.node[4].content_store 	hits[4] 	6963
scalar abilene_cost_network.node[4].content_store 	misses[4] 	111078
scalar abilene_cost_network.node[4].content_store 	decision_yes[4] 	111078
scalar abilene_cost_network.node[4].content_store 	decision_no[4] 	0
scalar abilene_cost_network.node[4].content_store 	decision_ratio[4] 	1
scalar abilene_cost_network.node[5].core_layer 	interests[5] 	0
scalar abilene_cost_network.node[5].core_layer 	data[5] 	0
scalar abilene_cost_network.node[5].content_store 	p_hit[5] 	-nan
scalar abilene_cost_network.node[5].content_store 	hits[5] 	0
scalar abilene_cost_network.node[5].content_store 	misses[5] 	0
scalar abilene_cost_network.node[5].content_store 	decision_yes[5] 	0
scalar abilene_cost_network.node[5].content_store 	decision_no[5] 	0
scalar abilene_cost_network.node[5].content_store 	decision_ratio[5] 	0
scalar abilene_cost_network.node[6].core_layer 	interests[6] 	120881
scalar abilene_cost_network.node[6].core_layer 	repo_load[6] 	113059
scalar abilene_cost_network.node[6].core_layer 	data[6] 	0
scalar abilene_cost_network.node[6].content_store 	p_hit[6] 	0.064708266807852
scalar abilene_cost_network.node[6].content_store 	hits[6] 	7822
scalar abilene_cost_network.node[6].content_store 	misses[6] 	113059
scalar abilene_cost_network.node[6].content_store 	decision_yes[6] 	113059
scalar abilene_cost_network.node[6].content_store 	decision_no[6] 	0
scalar abilene_cost_network.node[6].content_store 	decision_ratio[6] 	1
scalar abilene_cost_network.node[7].core_layer 	interests[7] 	268081
scalar abilene_cost_network.node[7].core_layer 	data[7] 	212927
scalar abilene_cost_network.node[7].content_store 	p_hit[7] 	0.20468067487065
scalar abilene_cost_network.node[7].content_store 	hits[7] 	54871
scalar abilene_cost_network.node[7].content_store 	misses[7] 	213210
scalar abilene_cost_network.node[7].content_store 	decision_yes[7] 	212927
scalar abilene_cost_network.node[7].content_store 	decision_no[7] 	0
scalar abilene_cost_network.node[7].content_store 	decision_ratio[7] 	1
scalar abilene_cost_network.node[8].core_layer 	interests[8] 	179260
scalar abilene_cost_network.node[8].core_layer 	data[8] 	172756
scalar abilene_cost_network.node[8].content_store 	p_hit[8] 	0.035869686488899
scalar abilene_cost_network.node[8].content_store 	hits[8] 	6430
scalar abilene_cost_network.node[8].content_store 	misses[8] 	172830
scalar abilene_cost_network.node[8].content_store 	decision_yes[8] 	172756
scalar abilene_cost_network.node[8].content_store 	decision_no[8] 	0
scalar abilene_cost_network.node[8].content_store 	decision_ratio[8] 	1
scalar abilene_cost_network.node[9].core_layer 	interests[9] 	264444
scalar abilene_cost_network.node[9].core_layer 	repo_load[9] 	123571
scalar abilene_cost_network.node[9].core_layer 	data[9] 	89518
scalar abilene_cost_network.node[9].content_store 	p_hit[9] 	0.19306545053017
scalar abilene_cost_network.node[9].content_store 	hits[9] 	51055
scalar abilene_cost_network.node[9].content_store 	misses[9] 	213389
scalar abilene_cost_network.node[9].content_store 	decision_yes[9] 	213089
scalar abilene_cost_network.node[9].content_store 	decision_no[9] 	0
scalar abilene_cost_network.node[9].content_store 	decision_ratio[9] 	1
scalar abilene_cost_network.node[10].core_layer 	interests[10] 	0
scalar abilene_cost_network.node[10].core_layer 	data[10] 	0
scalar abilene_cost_network.node[10].content_store 	p_hit[10] 	-nan
scalar abilene_cost_network.node[10].content_store 	hits[10] 	0
scalar abilene_cost_network.node[10].content_store 	misses[10] 	0
scalar abilene_cost_network.node[10].content_store 	decision_yes[10] 	0
scalar abilene_cost_network.node[10].content_store 	decision_no[10] 	0
scalar abilene_cost_network.node[10].content_store 	decision_ratio[10] 	0
scalar abilene_cost_network.client[3] 	hdistance[3] 	2.0595583364414
scalar abilene_cost_network.client[3] 	downloads[3] 	179639
scalar abilene_cost_network.client[3] 	avg_time[3] 	0.009094985442
scalar abilene_cost_network.client[3] 	interests_sent[3] 	179803
scalar abilene_cost_network.client[7] 	hdistance[7] 	1.8482913694029
scalar abilene_cost_network.client[7] 	downloads[7] 	180115
scalar abilene_cost_network.client[7] 	avg_time[7] 	0.008416660966
scalar abilene_cost_network.client[7] 	interests_sent[7] 	180314
scalar abilene_cost_network.client[9] 	hdistance[9] 	2.3040775054737
scalar abilene_cost_network.client[9] 	downloads[9] 	179497
scalar abilene_cost_network.client[9] 	avg_time[9] 	0.013676594463
scalar abilene_cost_network.client[9] 	interests_sent[9] 	179797
