version 2
run General-14-20140904-10:59:35-11053
attr D lce
attr F spr
attr R lru
attr a 1
attr configname General
attr csize 1e3
attr ctlg 1e5
attr datetime 20140904-10:59:35
attr experiment General
attr inifile omnetpp.ini
attr iterationvars "$net=abilene_cost, $rep=12, $priceratiovalue=10, $weights=0.333_0.333_0.334, $lambda=100, $a=1, $ctlg=1e5, $F=spr, $ttl=10, $D=lce, $xi=1, $R=lru, $csize=1e3, $pricebits=0, $window=60, $variance=0.05, $mytime=1800"
attr iterationvars2 "$net=abilene_cost, $rep=12, $priceratiovalue=10, $weights=0.333_0.333_0.334, $lambda=100, $a=1, $ctlg=1e5, $F=spr, $ttl=10, $D=lce, $xi=1, $R=lru, $csize=1e3, $pricebits=0, $window=60, $variance=0.05, $mytime=1800, $repetition=0"
attr lambda 100
attr measurement "$net=abilene_cost, $rep=12, $priceratiovalue=10, $weights=0.333_0.333_0.334, $lambda=100, $a=1, $ctlg=1e5, $F=spr, $ttl=10, $D=lce, $xi=1, $R=lru, $csize=1e3, $pricebits=0, $window=60, $variance=0.05, $mytime=1800"
attr mytime 1800
attr net abilene_cost
attr network networks.${net=abilene_cost}_network
attr pricebits 0
attr priceratiovalue 10
attr processid 11053
attr rep 12
attr repetition 0
attr replication #0
attr resultdir results
attr runnumber 14
attr seedset 12
attr ttl 10
attr variance 0.05
attr weights 0.333_0.333_0.334
attr window 60
attr xi 1

scalar . 	a 	1
scalar . 	csize 	1e3
scalar . 	ctlg 	1e5
scalar . 	lambda 	100
scalar . 	mytime 	1800
scalar . 	pricebits 	0
scalar . 	priceratiovalue 	10
scalar . 	rep 	12
scalar . 	ttl 	10
scalar . 	variance 	0.05
scalar . 	window 	60
scalar . 	xi 	1
scalar abilene_cost_network.content_distribution 	repo-0 	5
scalar abilene_cost_network.content_distribution 	repo-1 	6
scalar abilene_cost_network.content_distribution 	repo-2 	10
scalar abilene_cost_network.content_distribution 	client-0 	3
scalar abilene_cost_network.content_distribution 	client-1 	10
scalar abilene_cost_network.content_distribution 	client-2 	5
scalar abilene_cost_network.content_distribution 	repo-0_card 	33376
scalar abilene_cost_network.content_distribution 	repo-0_price 	1
scalar abilene_cost_network.content_distribution 	repo-1_card 	33438
scalar abilene_cost_network.content_distribution 	repo-1_price 	10
scalar abilene_cost_network.content_distribution 	repo-2_card 	33186
scalar abilene_cost_network.content_distribution 	repo-2_price 	0
scalar abilene_cost_network.statistics 	repo_popularity[0] 	0.35833076798376
scalar abilene_cost_network.statistics 	repo_popularity[1] 	0.34599129903999
scalar abilene_cost_network.statistics 	repo_popularity[2] 	0.29567793297627
scalar abilene_cost_network.statistics 	stabilization_time 	36060
scalar abilene_cost_network.statistics 	p_hit 	0.13202979862679
scalar abilene_cost_network.statistics 	interests 	131781.54545455
scalar abilene_cost_network.statistics 	data 	82674.181818182
scalar abilene_cost_network.statistics 	hdistance 	2.3315652143555
scalar abilene_cost_network.statistics 	avg_time 	0.010195413368
scalar abilene_cost_network.statistics 	downloads 	539664
scalar abilene_cost_network.statistics 	total_cost 	1277571
scalar abilene_cost_network.statistics 	total_replicas 	100000
scalar abilene_cost_network.statistics 	inner_hit 	0.35490416259006
scalar abilene_cost_network.statistics 	interests_sent 	540183
scalar abilene_cost_network.node[0].core_layer 	interests[0] 	0
scalar abilene_cost_network.node[0].core_layer 	data[0] 	0
scalar abilene_cost_network.node[0].core_layer 	repo_int[0] 	348135
scalar abilene_cost_network.node[0].content_store 	p_hit[0] 	-nan
scalar abilene_cost_network.node[0].content_store 	hits[0] 	0
scalar abilene_cost_network.node[0].content_store 	misses[0] 	0
scalar abilene_cost_network.node[0].content_store 	decision_yes[0] 	0
scalar abilene_cost_network.node[0].content_store 	decision_no[0] 	0
scalar abilene_cost_network.node[0].content_store 	decision_ratio[0] 	0
scalar abilene_cost_network.node[1].core_layer 	interests[1] 	121789
scalar abilene_cost_network.node[1].core_layer 	data[1] 	119930
scalar abilene_cost_network.node[1].content_store 	p_hit[1] 	0.015264104311555
scalar abilene_cost_network.node[1].content_store 	hits[1] 	1859
scalar abilene_cost_network.node[1].content_store 	misses[1] 	119930
scalar abilene_cost_network.node[1].content_store 	decision_yes[1] 	119930
scalar abilene_cost_network.node[1].content_store 	decision_no[1] 	0
scalar abilene_cost_network.node[1].content_store 	decision_ratio[1] 	1
scalar abilene_cost_network.node[2].core_layer 	interests[2] 	123630
scalar abilene_cost_network.node[2].core_layer 	data[2] 	119995
scalar abilene_cost_network.node[2].content_store 	p_hit[2] 	0.029402248645151
scalar abilene_cost_network.node[2].content_store 	hits[2] 	3635
scalar abilene_cost_network.node[2].content_store 	misses[2] 	119995
scalar abilene_cost_network.node[2].content_store 	decision_yes[2] 	119995
scalar abilene_cost_network.node[2].content_store 	decision_no[2] 	0
scalar abilene_cost_network.node[2].content_store 	decision_ratio[2] 	1
scalar abilene_cost_network.node[3].core_layer 	interests[3] 	263391
scalar abilene_cost_network.node[3].core_layer 	data[3] 	210443
scalar abilene_cost_network.node[3].content_store 	p_hit[3] 	0.19982459537342
scalar abilene_cost_network.node[3].content_store 	hits[3] 	52632
scalar abilene_cost_network.node[3].content_store 	misses[3] 	210759
scalar abilene_cost_network.node[3].content_store 	decision_yes[3] 	210443
scalar abilene_cost_network.node[3].content_store 	decision_no[3] 	0
scalar abilene_cost_network.node[3].content_store 	decision_ratio[3] 	1
scalar abilene_cost_network.node[4].core_layer 	interests[4] 	123898
scalar abilene_cost_network.node[4].core_layer 	data[4] 	118853
scalar abilene_cost_network.node[4].content_store 	p_hit[4] 	0.040718978514585
scalar abilene_cost_network.node[4].content_store 	hits[4] 	5045
scalar abilene_cost_network.node[4].content_store 	misses[4] 	118853
scalar abilene_cost_network.node[4].content_store 	decision_yes[4] 	118853
scalar abilene_cost_network.node[4].content_store 	decision_no[4] 	0
scalar abilene_cost_network.node[4].content_store 	decision_ratio[4] 	1
scalar abilene_cost_network.node[5].core_layer 	interests[5] 	256829
scalar abilene_cost_network.node[5].core_layer 	repo_load[5] 	114381
scalar abilene_cost_network.node[5].core_layer 	data[5] 	92532
scalar abilene_cost_network.node[5].content_store 	p_hit[5] 	0.19387997461346
scalar abilene_cost_network.node[5].content_store 	hits[5] 	49794
scalar abilene_cost_network.node[5].content_store 	misses[5] 	207035
scalar abilene_cost_network.node[5].content_store 	decision_yes[5] 	206913
scalar abilene_cost_network.node[5].content_store 	decision_no[5] 	0
scalar abilene_cost_network.node[5].content_store 	decision_ratio[5] 	1
scalar abilene_cost_network.node[6].core_layer 	interests[6] 	126239
scalar abilene_cost_network.node[6].core_layer 	repo_load[6] 	116319
scalar abilene_cost_network.node[6].core_layer 	data[6] 	0
scalar abilene_cost_network.node[6].content_store 	p_hit[6] 	0.078581104096198
scalar abilene_cost_network.node[6].content_store 	hits[6] 	9920
scalar abilene_cost_network.node[6].content_store 	misses[6] 	116319
scalar abilene_cost_network.node[6].content_store 	decision_yes[6] 	116319
scalar abilene_cost_network.node[6].content_store 	decision_no[6] 	0
scalar abilene_cost_network.node[6].content_store 	decision_ratio[6] 	1
scalar abilene_cost_network.node[7].core_layer 	interests[7] 	87293
scalar abilene_cost_network.node[7].core_layer 	data[7] 	78069
scalar abilene_cost_network.node[7].content_store 	p_hit[7] 	0.10556402002452
scalar abilene_cost_network.node[7].content_store 	hits[7] 	9215
scalar abilene_cost_network.node[7].content_store 	misses[7] 	78078
scalar abilene_cost_network.node[7].content_store 	decision_yes[7] 	78069
scalar abilene_cost_network.node[7].content_store 	decision_no[7] 	0
scalar abilene_cost_network.node[7].content_store 	decision_ratio[7] 	1
scalar abilene_cost_network.node[8].core_layer 	interests[8] 	39545
scalar abilene_cost_network.node[8].core_layer 	data[8] 	39142
scalar abilene_cost_network.node[8].content_store 	p_hit[8] 	0.010190921734733
scalar abilene_cost_network.node[8].content_store 	hits[8] 	403
scalar abilene_cost_network.node[8].content_store 	misses[8] 	39142
scalar abilene_cost_network.node[8].content_store 	decision_yes[8] 	39142
scalar abilene_cost_network.node[8].content_store 	decision_no[8] 	0
scalar abilene_cost_network.node[8].content_store 	decision_ratio[8] 	1
scalar abilene_cost_network.node[9].core_layer 	interests[9] 	48241
scalar abilene_cost_network.node[9].core_layer 	data[9] 	39546
scalar abilene_cost_network.node[9].content_store 	p_hit[9] 	0.1802616032006
scalar abilene_cost_network.node[9].content_store 	hits[9] 	8696
scalar abilene_cost_network.node[9].content_store 	misses[9] 	39545
scalar abilene_cost_network.node[9].content_store 	decision_yes[9] 	39546
scalar abilene_cost_network.node[9].content_store 	decision_no[9] 	0
scalar abilene_cost_network.node[9].content_store 	decision_ratio[9] 	1
scalar abilene_cost_network.node[10].core_layer 	interests[10] 	258742
scalar abilene_cost_network.node[10].core_layer 	repo_load[10] 	117435
scalar abilene_cost_network.node[10].core_layer 	data[10] 	90906
scalar abilene_cost_network.node[10].content_store 	p_hit[10] 	0.19398087670343
scalar abilene_cost_network.node[10].content_store 	hits[10] 	50191
scalar abilene_cost_network.node[10].content_store 	misses[10] 	208551
scalar abilene_cost_network.node[10].content_store 	decision_yes[10] 	208341
scalar abilene_cost_network.node[10].content_store 	decision_no[10] 	0
scalar abilene_cost_network.node[10].content_store 	decision_ratio[10] 	1
scalar abilene_cost_network.client[3] 	hdistance[3] 	2.2662607390108
scalar abilene_cost_network.client[3] 	downloads[3] 	179835
scalar abilene_cost_network.client[3] 	avg_time[3] 	0.009389234557
scalar abilene_cost_network.client[3] 	interests_sent[3] 	180022
scalar abilene_cost_network.client[5] 	hdistance[5] 	2.0677504671395
scalar abilene_cost_network.client[5] 	downloads[5] 	180353
scalar abilene_cost_network.client[5] 	avg_time[5] 	0.007392344594
scalar abilene_cost_network.client[5] 	interests_sent[5] 	180475
scalar abilene_cost_network.client[10] 	hdistance[10] 	2.6606844369164
scalar abilene_cost_network.client[10] 	downloads[10] 	179476
scalar abilene_cost_network.client[10] 	avg_time[10] 	0.013804660954
scalar abilene_cost_network.client[10] 	interests_sent[10] 	179686
