version 2
run General-2-20140904-16:05:27-25324
attr D lce
attr F spr
attr R lru
attr a 1
attr configname General
attr csize 1e3
attr ctlg 1e5
attr datetime 20140904-16:05:27
attr experiment General
attr inifile omnetpp.ini
attr iterationvars "$net=abilene_cost, $rep=17, $priceratiovalue=10, $weights=0.333_0.333_0.334, $lambda=100, $a=1, $ctlg=1e5, $F=spr, $ttl=10, $D=lce, $xi=1, $R=lru, $csize=1e3, $pricebits=0, $window=60, $variance=0.05, $mytime=1800"
attr iterationvars2 "$net=abilene_cost, $rep=17, $priceratiovalue=10, $weights=0.333_0.333_0.334, $lambda=100, $a=1, $ctlg=1e5, $F=spr, $ttl=10, $D=lce, $xi=1, $R=lru, $csize=1e3, $pricebits=0, $window=60, $variance=0.05, $mytime=1800, $repetition=0"
attr lambda 100
attr measurement "$net=abilene_cost, $rep=17, $priceratiovalue=10, $weights=0.333_0.333_0.334, $lambda=100, $a=1, $ctlg=1e5, $F=spr, $ttl=10, $D=lce, $xi=1, $R=lru, $csize=1e3, $pricebits=0, $window=60, $variance=0.05, $mytime=1800"
attr mytime 1800
attr net abilene_cost
attr network networks.${net=abilene_cost}_network
attr pricebits 0
attr priceratiovalue 10
attr processid 25324
attr rep 17
attr repetition 0
attr replication #0
attr resultdir results
attr runnumber 2
attr seedset 17
attr ttl 10
attr variance 0.05
attr weights 0.333_0.333_0.334
attr window 60
attr xi 1

scalar . 	a 	1
scalar . 	csize 	1e3
scalar . 	ctlg 	1e5
scalar . 	lambda 	100
scalar . 	mytime 	1800
scalar . 	pricebits 	0
scalar . 	priceratiovalue 	10
scalar . 	rep 	17
scalar . 	ttl 	10
scalar . 	variance 	0.05
scalar . 	window 	60
scalar . 	xi 	1
scalar abilene_cost_network.content_distribution 	repo-0 	5
scalar abilene_cost_network.content_distribution 	repo-1 	7
scalar abilene_cost_network.content_distribution 	repo-2 	6
scalar abilene_cost_network.content_distribution 	client-0 	7
scalar abilene_cost_network.content_distribution 	client-1 	0
scalar abilene_cost_network.content_distribution 	client-2 	5
scalar abilene_cost_network.content_distribution 	repo-0_card 	33433
scalar abilene_cost_network.content_distribution 	repo-0_price 	10
scalar abilene_cost_network.content_distribution 	repo-1_card 	33237
scalar abilene_cost_network.content_distribution 	repo-1_price 	0
scalar abilene_cost_network.content_distribution 	repo-2_card 	33330
scalar abilene_cost_network.content_distribution 	repo-2_price 	1
scalar abilene_cost_network.statistics 	repo_popularity[0] 	0.26765239259926
scalar abilene_cost_network.statistics 	repo_popularity[1] 	0.4212005119898
scalar abilene_cost_network.statistics 	repo_popularity[2] 	0.31114709541094
scalar abilene_cost_network.statistics 	stabilization_time 	36060
scalar abilene_cost_network.statistics 	p_hit 	0.12369892209631
scalar abilene_cost_network.statistics 	interests 	127621.45454545
scalar abilene_cost_network.statistics 	data 	78483.090909091
scalar abilene_cost_network.statistics 	hdistance 	2.2777468015095
scalar abilene_cost_network.statistics 	avg_time 	0.009053323467
scalar abilene_cost_network.statistics 	downloads 	539980
scalar abilene_cost_network.statistics 	total_cost 	1177737
scalar abilene_cost_network.statistics 	total_replicas 	100000
scalar abilene_cost_network.statistics 	inner_hit 	0.32164894996111
scalar abilene_cost_network.statistics 	interests_sent 	540518
scalar abilene_cost_network.node[0].core_layer 	interests[0] 	180246
scalar abilene_cost_network.node[0].core_layer 	data[0] 	129230
scalar abilene_cost_network.node[0].core_layer 	repo_int[0] 	366296
scalar abilene_cost_network.node[0].content_store 	p_hit[0] 	0.28093827324878
scalar abilene_cost_network.node[0].content_store 	hits[0] 	50638
scalar abilene_cost_network.node[0].content_store 	misses[0] 	129608
scalar abilene_cost_network.node[0].content_store 	decision_yes[0] 	129230
scalar abilene_cost_network.node[0].content_store 	decision_no[0] 	0
scalar abilene_cost_network.node[0].content_store 	decision_ratio[0] 	1
scalar abilene_cost_network.node[1].core_layer 	interests[1] 	129233
scalar abilene_cost_network.node[1].core_layer 	data[1] 	128560
scalar abilene_cost_network.node[1].content_store 	p_hit[1] 	0.0051999102396447
scalar abilene_cost_network.node[1].content_store 	hits[1] 	672
scalar abilene_cost_network.node[1].content_store 	misses[1] 	128561
scalar abilene_cost_network.node[1].content_store 	decision_yes[1] 	128560
scalar abilene_cost_network.node[1].content_store 	decision_no[1] 	0
scalar abilene_cost_network.node[1].content_store 	decision_ratio[1] 	1
scalar abilene_cost_network.node[2].core_layer 	interests[2] 	128561
scalar abilene_cost_network.node[2].core_layer 	data[2] 	128538
scalar abilene_cost_network.node[2].content_store 	p_hit[2] 	0.00017112499124929
scalar abilene_cost_network.node[2].content_store 	hits[2] 	22
scalar abilene_cost_network.node[2].content_store 	misses[2] 	128539
scalar abilene_cost_network.node[2].content_store 	decision_yes[2] 	128538
scalar abilene_cost_network.node[2].content_store 	decision_no[2] 	0
scalar abilene_cost_network.node[2].content_store 	decision_ratio[2] 	1
scalar abilene_cost_network.node[3].core_layer 	interests[3] 	128538
scalar abilene_cost_network.node[3].core_layer 	data[3] 	128538
scalar abilene_cost_network.node[3].content_store 	p_hit[3] 	0
scalar abilene_cost_network.node[3].content_store 	hits[3] 	0
scalar abilene_cost_network.node[3].content_store 	misses[3] 	128538
scalar abilene_cost_network.node[3].content_store 	decision_yes[3] 	128538
scalar abilene_cost_network.node[3].content_store 	decision_no[3] 	0
scalar abilene_cost_network.node[3].content_store 	decision_ratio[3] 	1
scalar abilene_cost_network.node[4].core_layer 	interests[4] 	37657
scalar abilene_cost_network.node[4].core_layer 	data[4] 	33705
scalar abilene_cost_network.node[4].content_store 	p_hit[4] 	0.10494728735693
scalar abilene_cost_network.node[4].content_store 	hits[4] 	3952
scalar abilene_cost_network.node[4].content_store 	misses[4] 	33705
scalar abilene_cost_network.node[4].content_store 	decision_yes[4] 	33705
scalar abilene_cost_network.node[4].content_store 	decision_no[4] 	0
scalar abilene_cost_network.node[4].content_store 	decision_ratio[4] 	1
scalar abilene_cost_network.node[5].core_layer 	interests[5] 	253886
scalar abilene_cost_network.node[5].core_layer 	repo_load[5] 	105304
scalar abilene_cost_network.node[5].core_layer 	data[5] 	96814
scalar abilene_cost_network.node[5].content_store 	p_hit[5] 	0.20362288586216
scalar abilene_cost_network.node[5].content_store 	hits[5] 	51697
scalar abilene_cost_network.node[5].content_store 	misses[5] 	202189
scalar abilene_cost_network.node[5].content_store 	decision_yes[5] 	202118
scalar abilene_cost_network.node[5].content_store 	decision_no[5] 	0
scalar abilene_cost_network.node[5].content_store 	decision_ratio[5] 	1
scalar abilene_cost_network.node[6].core_layer 	interests[6] 	224973
scalar abilene_cost_network.node[6].core_layer 	repo_load[6] 	124697
scalar abilene_cost_network.node[6].core_layer 	data[6] 	89770
scalar abilene_cost_network.node[6].content_store 	p_hit[6] 	0.046698937205798
scalar abilene_cost_network.node[6].content_store 	hits[6] 	10506
scalar abilene_cost_network.node[6].content_store 	misses[6] 	214467
scalar abilene_cost_network.node[6].content_store 	decision_yes[6] 	214467
scalar abilene_cost_network.node[6].content_store 	decision_no[6] 	0
scalar abilene_cost_network.node[6].content_store 	decision_ratio[6] 	1
scalar abilene_cost_network.node[7].core_layer 	interests[7] 	320742
scalar abilene_cost_network.node[7].core_layer 	repo_load[7] 	136295
scalar abilene_cost_network.node[7].core_layer 	data[7] 	128159
scalar abilene_cost_network.node[7].content_store 	p_hit[7] 	0.17511270740969
scalar abilene_cost_network.node[7].content_store 	hits[7] 	56166
scalar abilene_cost_network.node[7].content_store 	misses[7] 	264576
scalar abilene_cost_network.node[7].content_store 	decision_yes[7] 	264454
scalar abilene_cost_network.node[7].content_store 	decision_no[7] 	0
scalar abilene_cost_network.node[7].content_store 	decision_ratio[7] 	1
scalar abilene_cost_network.node[8].core_layer 	interests[8] 	0
scalar abilene_cost_network.node[8].core_layer 	data[8] 	0
scalar abilene_cost_network.node[8].content_store 	p_hit[8] 	-nan
scalar abilene_cost_network.node[8].content_store 	hits[8] 	0
scalar abilene_cost_network.node[8].content_store 	misses[8] 	0
scalar abilene_cost_network.node[8].content_store 	decision_yes[8] 	0
scalar abilene_cost_network.node[8].content_store 	decision_no[8] 	0
scalar abilene_cost_network.node[8].content_store 	decision_ratio[8] 	0
scalar abilene_cost_network.node[9].core_layer 	interests[9] 	0
scalar abilene_cost_network.node[9].core_layer 	data[9] 	0
scalar abilene_cost_network.node[9].content_store 	p_hit[9] 	-nan
scalar abilene_cost_network.node[9].content_store 	hits[9] 	0
scalar abilene_cost_network.node[9].content_store 	misses[9] 	0
scalar abilene_cost_network.node[9].content_store 	decision_yes[9] 	0
scalar abilene_cost_network.node[9].content_store 	decision_no[9] 	0
scalar abilene_cost_network.node[9].content_store 	decision_ratio[9] 	0
scalar abilene_cost_network.node[10].core_layer 	interests[10] 	0
scalar abilene_cost_network.node[10].core_layer 	data[10] 	0
scalar abilene_cost_network.node[10].content_store 	p_hit[10] 	-nan
scalar abilene_cost_network.node[10].content_store 	hits[10] 	0
scalar abilene_cost_network.node[10].content_store 	misses[10] 	0
scalar abilene_cost_network.node[10].content_store 	decision_yes[10] 	0
scalar abilene_cost_network.node[10].content_store 	decision_no[10] 	0
scalar abilene_cost_network.node[10].content_store 	decision_ratio[10] 	0
scalar abilene_cost_network.client[0] 	hdistance[0] 	3.9244501523339
scalar abilene_cost_network.client[0] 	downloads[0] 	179868
scalar abilene_cost_network.client[0] 	avg_time[0] 	0.021075632099
scalar abilene_cost_network.client[0] 	interests_sent[0] 	180246
scalar abilene_cost_network.client[5] 	hdistance[5] 	1.506252946233
scalar abilene_cost_network.client[5] 	downloads[5] 	180315
scalar abilene_cost_network.client[5] 	avg_time[5] 	0.002794313794
scalar abilene_cost_network.client[5] 	interests_sent[5] 	180386
scalar abilene_cost_network.client[7] 	hdistance[7] 	1.4025373059617
scalar abilene_cost_network.client[7] 	downloads[7] 	179797
scalar abilene_cost_network.client[7] 	avg_time[7] 	0.003290024509
scalar abilene_cost_network.client[7] 	interests_sent[7] 	179886
