version 2
run General-15-20140930-18:41:07-19941
attr D costaware0.01
attr F nrr
attr R lru
attr a 1
attr configname General
attr csize 1e3
attr ctlg 1e5
attr datetime 20140930-18:41:07
attr experiment General
attr inifile omnetpp.ini
attr iterationvars "$net=tiger_cost, $rep=5, $priceratiovalue=10, $weights=0.333_0.333_0.334, $lambda=100, $a=1, $ctlg=1e5, $F=nrr, $ttl=10, $D=costaware0.01, $xi=1, $R=lru, $csize=1e3, $pricebits=0, $window=60, $variance=0.05, $mytime=1800"
attr iterationvars2 "$net=tiger_cost, $rep=5, $priceratiovalue=10, $weights=0.333_0.333_0.334, $lambda=100, $a=1, $ctlg=1e5, $F=nrr, $ttl=10, $D=costaware0.01, $xi=1, $R=lru, $csize=1e3, $pricebits=0, $window=60, $variance=0.05, $mytime=1800, $repetition=0"
attr lambda 100
attr measurement "$net=tiger_cost, $rep=5, $priceratiovalue=10, $weights=0.333_0.333_0.334, $lambda=100, $a=1, $ctlg=1e5, $F=nrr, $ttl=10, $D=costaware0.01, $xi=1, $R=lru, $csize=1e3, $pricebits=0, $window=60, $variance=0.05, $mytime=1800"
attr mytime 1800
attr net tiger_cost
attr network networks.${net=tiger_cost,dtelecom_cost}_network
attr pricebits 0
attr priceratiovalue 10
attr processid 19941
attr rep 5
attr repetition 0
attr replication #0
attr resultdir results
attr runnumber 15
attr seedset 5
attr ttl 10
attr variance 0.05
attr weights 0.333_0.333_0.334
attr window 60
attr xi 1

scalar . 	a 	1
scalar . 	csize 	1e3
scalar . 	ctlg 	1e5
scalar . 	lambda 	100
scalar . 	mytime 	1800
scalar . 	pricebits 	0
scalar . 	priceratiovalue 	10
scalar . 	rep 	5
scalar . 	ttl 	10
scalar . 	variance 	0.05
scalar . 	window 	60
scalar . 	xi 	1
scalar tiger_cost_network.content_distribution 	repo-0 	9
scalar tiger_cost_network.content_distribution 	repo-1 	14
scalar tiger_cost_network.content_distribution 	repo-2 	5
scalar tiger_cost_network.content_distribution 	client-0 	4
scalar tiger_cost_network.content_distribution 	client-1 	9
scalar tiger_cost_network.content_distribution 	client-2 	0
scalar tiger_cost_network.content_distribution 	repo-0_card 	33098
scalar tiger_cost_network.content_distribution 	repo-0_price 	0
scalar tiger_cost_network.content_distribution 	repo-1_card 	33495
scalar tiger_cost_network.content_distribution 	repo-1_price 	10
scalar tiger_cost_network.content_distribution 	repo-2_card 	33407
scalar tiger_cost_network.content_distribution 	repo-2_price 	1
scalar tiger_cost_network.statistics 	repo_popularity[0] 	0.31037770261398
scalar tiger_cost_network.statistics 	repo_popularity[1] 	0.29913869324176
scalar tiger_cost_network.statistics 	repo_popularity[2] 	0.39048360414427
scalar tiger_cost_network.statistics 	stabilization_time 	36060
scalar tiger_cost_network.statistics 	p_hit 	0.1115166110744
scalar tiger_cost_network.statistics 	interests 	87010.681818182
scalar tiger_cost_network.statistics 	data 	62475.727272727
scalar tiger_cost_network.statistics 	hdistance 	3.1529159697724
scalar tiger_cost_network.statistics 	avg_time 	0.001045237165
scalar tiger_cost_network.statistics 	downloads 	539264
scalar tiger_cost_network.statistics 	total_cost 	853100
scalar tiger_cost_network.statistics 	total_replicas 	100000
scalar tiger_cost_network.statistics 	inner_hit 	0.39585620401139
scalar tiger_cost_network.node[0].core_layer 	interests[0] 	183343
scalar tiger_cost_network.node[0].core_layer 	data[0] 	177814
scalar tiger_cost_network.node[0].core_layer 	repo_int[0] 	325793
scalar tiger_cost_network.node[0].content_store 	p_hit[0] 	0.029240276421789
scalar tiger_cost_network.node[0].content_store 	hits[0] 	5361
scalar tiger_cost_network.node[0].content_store 	misses[0] 	177982
scalar tiger_cost_network.node[0].content_store 	decision_yes[0] 	782
scalar tiger_cost_network.node[0].content_store 	decision_no[0] 	177032
scalar tiger_cost_network.node[0].content_store 	decision_ratio[0] 	0.0043978539372603
scalar tiger_cost_network.node[0].content_store 	correction_factor[0] 	0.0027225701061802
scalar tiger_cost_network.node[0].content_store 	kappa[0] 	1
scalar tiger_cost_network.node[1].core_layer 	interests[1] 	98246
scalar tiger_cost_network.node[1].core_layer 	data[1] 	93403
scalar tiger_cost_network.node[1].content_store 	p_hit[1] 	0.049294627771105
scalar tiger_cost_network.node[1].content_store 	hits[1] 	4843
scalar tiger_cost_network.node[1].content_store 	misses[1] 	93403
scalar tiger_cost_network.node[1].content_store 	decision_yes[1] 	706
scalar tiger_cost_network.node[1].content_store 	decision_no[1] 	92697
scalar tiger_cost_network.node[1].content_store 	decision_ratio[1] 	0.0075586437266469
scalar tiger_cost_network.node[1].content_store 	correction_factor[1] 	0.0027225701061802
scalar tiger_cost_network.node[1].content_store 	kappa[1] 	1
scalar tiger_cost_network.node[2].core_layer 	interests[2] 	108606
scalar tiger_cost_network.node[2].core_layer 	data[2] 	102292
scalar tiger_cost_network.node[2].content_store 	p_hit[2] 	0.05812754359796
scalar tiger_cost_network.node[2].content_store 	hits[2] 	6313
scalar tiger_cost_network.node[2].content_store 	misses[2] 	102293
scalar tiger_cost_network.node[2].content_store 	decision_yes[2] 	693
scalar tiger_cost_network.node[2].content_store 	decision_no[2] 	101599
scalar tiger_cost_network.node[2].content_store 	decision_ratio[2] 	0.0067747233410237
scalar tiger_cost_network.node[2].content_store 	correction_factor[2] 	0.0027225701061802
scalar tiger_cost_network.node[2].content_store 	kappa[2] 	1
scalar tiger_cost_network.node[3].core_layer 	interests[3] 	140970
scalar tiger_cost_network.node[3].core_layer 	data[3] 	134336
scalar tiger_cost_network.node[3].content_store 	p_hit[3] 	0.047052564375399
scalar tiger_cost_network.node[3].content_store 	hits[3] 	6633
scalar tiger_cost_network.node[3].content_store 	misses[3] 	134337
scalar tiger_cost_network.node[3].content_store 	decision_yes[3] 	1414
scalar tiger_cost_network.node[3].content_store 	decision_no[3] 	132922
scalar tiger_cost_network.node[3].content_store 	decision_ratio[3] 	0.010525845640781
scalar tiger_cost_network.node[3].content_store 	correction_factor[3] 	0.0027225701061802
scalar tiger_cost_network.node[3].content_store 	kappa[3] 	1
scalar tiger_cost_network.node[4].core_layer 	interests[4] 	199847
scalar tiger_cost_network.node[4].core_layer 	data[4] 	151819
scalar tiger_cost_network.node[4].content_store 	p_hit[4] 	0.23969336542455
scalar tiger_cost_network.node[4].content_store 	hits[4] 	47902
scalar tiger_cost_network.node[4].content_store 	misses[4] 	151945
scalar tiger_cost_network.node[4].content_store 	decision_yes[4] 	767
scalar tiger_cost_network.node[4].content_store 	decision_no[4] 	151052
scalar tiger_cost_network.node[4].content_store 	decision_ratio[4] 	0.0050520685816663
scalar tiger_cost_network.node[4].content_store 	correction_factor[4] 	0.0027225701061802
scalar tiger_cost_network.node[4].content_store 	kappa[4] 	1
scalar tiger_cost_network.node[5].core_layer 	interests[5] 	107999
scalar tiger_cost_network.node[5].core_layer 	repo_load[5] 	81410
scalar tiger_cost_network.node[5].core_layer 	data[5] 	0
scalar tiger_cost_network.node[5].content_store 	p_hit[5] 	0.24619672404374
scalar tiger_cost_network.node[5].content_store 	hits[5] 	26589
scalar tiger_cost_network.node[5].content_store 	misses[5] 	81410
scalar tiger_cost_network.node[5].content_store 	decision_yes[5] 	225
scalar tiger_cost_network.node[5].content_store 	decision_no[5] 	81185
scalar tiger_cost_network.node[5].content_store 	decision_ratio[5] 	0.0027637882324039
scalar tiger_cost_network.node[5].content_store 	correction_factor[5] 	0.0027225701061802
scalar tiger_cost_network.node[5].content_store 	kappa[5] 	1
scalar tiger_cost_network.node[6].core_layer 	interests[6] 	63494
scalar tiger_cost_network.node[6].core_layer 	data[6] 	36643
scalar tiger_cost_network.node[6].content_store 	p_hit[6] 	0.42289035184427
scalar tiger_cost_network.node[6].content_store 	hits[6] 	26851
scalar tiger_cost_network.node[6].content_store 	misses[6] 	36643
scalar tiger_cost_network.node[6].content_store 	decision_yes[6] 	67
scalar tiger_cost_network.node[6].content_store 	decision_no[6] 	36576
scalar tiger_cost_network.node[6].content_store 	decision_ratio[6] 	0.001828452910515
scalar tiger_cost_network.node[6].content_store 	correction_factor[6] 	0.0027225701061802
scalar tiger_cost_network.node[6].content_store 	kappa[6] 	1
scalar tiger_cost_network.node[7].core_layer 	interests[7] 	59903
scalar tiger_cost_network.node[7].core_layer 	data[7] 	53847
scalar tiger_cost_network.node[7].content_store 	p_hit[7] 	0.10109677311654
scalar tiger_cost_network.node[7].content_store 	hits[7] 	6056
scalar tiger_cost_network.node[7].content_store 	misses[7] 	53847
scalar tiger_cost_network.node[7].content_store 	decision_yes[7] 	70
scalar tiger_cost_network.node[7].content_store 	decision_no[7] 	53777
scalar tiger_cost_network.node[7].content_store 	decision_ratio[7] 	0.0012999795717496
scalar tiger_cost_network.node[7].content_store 	correction_factor[7] 	0.0027225701061802
scalar tiger_cost_network.node[7].content_store 	kappa[7] 	1
scalar tiger_cost_network.node[8].core_layer 	interests[8] 	171913
scalar tiger_cost_network.node[8].core_layer 	data[8] 	152375
scalar tiger_cost_network.node[8].content_store 	p_hit[8] 	0.11365050926922
scalar tiger_cost_network.node[8].content_store 	hits[8] 	19538
scalar tiger_cost_network.node[8].content_store 	misses[8] 	152375
scalar tiger_cost_network.node[8].content_store 	decision_yes[8] 	779
scalar tiger_cost_network.node[8].content_store 	decision_no[8] 	151596
scalar tiger_cost_network.node[8].content_store 	decision_ratio[8] 	0.0051123872026251
scalar tiger_cost_network.node[8].content_store 	correction_factor[8] 	0.0027225701061802
scalar tiger_cost_network.node[8].content_store 	kappa[8] 	1
scalar tiger_cost_network.node[9].core_layer 	interests[9] 	294710
scalar tiger_cost_network.node[9].core_layer 	repo_load[9] 	167214
scalar tiger_cost_network.node[9].core_layer 	data[9] 	118100
scalar tiger_cost_network.node[9].content_store 	p_hit[9] 	0.031166231210342
scalar tiger_cost_network.node[9].content_store 	hits[9] 	9185
scalar tiger_cost_network.node[9].content_store 	misses[9] 	285525
scalar tiger_cost_network.node[9].content_store 	decision_yes[9] 	728
scalar tiger_cost_network.node[9].content_store 	decision_no[9] 	284586
scalar tiger_cost_network.node[9].content_store 	decision_ratio[9] 	0.0025515747562335
scalar tiger_cost_network.node[9].content_store 	correction_factor[9] 	0.0027225701061802
scalar tiger_cost_network.node[9].content_store 	kappa[9] 	1
scalar tiger_cost_network.node[10].core_layer 	interests[10] 	64751
scalar tiger_cost_network.node[10].core_layer 	data[10] 	64751
scalar tiger_cost_network.node[10].content_store 	p_hit[10] 	0
scalar tiger_cost_network.node[10].content_store 	hits[10] 	0
scalar tiger_cost_network.node[10].content_store 	misses[10] 	64751
scalar tiger_cost_network.node[10].content_store 	decision_yes[10] 	0
scalar tiger_cost_network.node[10].content_store 	decision_no[10] 	64751
scalar tiger_cost_network.node[10].content_store 	decision_ratio[10] 	0
scalar tiger_cost_network.node[10].content_store 	correction_factor[10] 	0.0027225701061802
scalar tiger_cost_network.node[10].content_store 	kappa[10] 	1
scalar tiger_cost_network.node[11].core_layer 	interests[11] 	64751
scalar tiger_cost_network.node[11].core_layer 	data[11] 	64751
scalar tiger_cost_network.node[11].content_store 	p_hit[11] 	0
scalar tiger_cost_network.node[11].content_store 	hits[11] 	0
scalar tiger_cost_network.node[11].content_store 	misses[11] 	64751
scalar tiger_cost_network.node[11].content_store 	decision_yes[11] 	0
scalar tiger_cost_network.node[11].content_store 	decision_no[11] 	64751
scalar tiger_cost_network.node[11].content_store 	decision_ratio[11] 	0
scalar tiger_cost_network.node[11].content_store 	correction_factor[11] 	0.0027225701061802
scalar tiger_cost_network.node[11].content_store 	kappa[11] 	1
scalar tiger_cost_network.node[12].core_layer 	interests[12] 	51323
scalar tiger_cost_network.node[12].core_layer 	data[12] 	39897
scalar tiger_cost_network.node[12].content_store 	p_hit[12] 	0.2226292305594
scalar tiger_cost_network.node[12].content_store 	hits[12] 	11426
scalar tiger_cost_network.node[12].content_store 	misses[12] 	39897
scalar tiger_cost_network.node[12].content_store 	decision_yes[12] 	681
scalar tiger_cost_network.node[12].content_store 	decision_no[12] 	39216
scalar tiger_cost_network.node[12].content_store 	decision_ratio[12] 	0.017068952552824
scalar tiger_cost_network.node[12].content_store 	correction_factor[12] 	0.0027225701061802
scalar tiger_cost_network.node[12].content_store 	kappa[12] 	1
scalar tiger_cost_network.node[13].core_layer 	interests[13] 	37397
scalar tiger_cost_network.node[13].core_layer 	data[13] 	32093
scalar tiger_cost_network.node[13].content_store 	p_hit[13] 	0.14182955852074
scalar tiger_cost_network.node[13].content_store 	hits[13] 	5304
scalar tiger_cost_network.node[13].content_store 	misses[13] 	32093
scalar tiger_cost_network.node[13].content_store 	decision_yes[13] 	669
scalar tiger_cost_network.node[13].content_store 	decision_no[13] 	31424
scalar tiger_cost_network.node[13].content_store 	decision_ratio[13] 	0.020845667279469
scalar tiger_cost_network.node[13].content_store 	correction_factor[13] 	0.0027225701061802
scalar tiger_cost_network.node[13].content_store 	kappa[13] 	1
scalar tiger_cost_network.node[14].core_layer 	interests[14] 	97240
scalar tiger_cost_network.node[14].core_layer 	repo_load[14] 	77169
scalar tiger_cost_network.node[14].core_layer 	data[14] 	0
scalar tiger_cost_network.node[14].content_store 	p_hit[14] 	0.20640682846565
scalar tiger_cost_network.node[14].content_store 	hits[14] 	20071
scalar tiger_cost_network.node[14].content_store 	misses[14] 	77169
scalar tiger_cost_network.node[14].content_store 	decision_yes[14] 	2069
scalar tiger_cost_network.node[14].content_store 	decision_no[14] 	75100
scalar tiger_cost_network.node[14].content_store 	decision_ratio[14] 	0.026811284324016
scalar tiger_cost_network.node[14].content_store 	correction_factor[14] 	0.0027225701061802
scalar tiger_cost_network.node[14].content_store 	kappa[14] 	1
scalar tiger_cost_network.node[15].core_layer 	interests[15] 	0
scalar tiger_cost_network.node[15].core_layer 	data[15] 	0
scalar tiger_cost_network.node[15].content_store 	p_hit[15] 	-nan
scalar tiger_cost_network.node[15].content_store 	hits[15] 	0
scalar tiger_cost_network.node[15].content_store 	misses[15] 	0
scalar tiger_cost_network.node[15].content_store 	decision_yes[15] 	0
scalar tiger_cost_network.node[15].content_store 	decision_no[15] 	0
scalar tiger_cost_network.node[15].content_store 	decision_ratio[15] 	0
scalar tiger_cost_network.node[15].content_store 	correction_factor[15] 	0.0027225701061802
scalar tiger_cost_network.node[15].content_store 	kappa[15] 	1
scalar tiger_cost_network.node[16].core_layer 	interests[16] 	0
scalar tiger_cost_network.node[16].core_layer 	data[16] 	0
scalar tiger_cost_network.node[16].content_store 	p_hit[16] 	-nan
scalar tiger_cost_network.node[16].content_store 	hits[16] 	0
scalar tiger_cost_network.node[16].content_store 	misses[16] 	0
scalar tiger_cost_network.node[16].content_store 	decision_yes[16] 	0
scalar tiger_cost_network.node[16].content_store 	decision_no[16] 	0
scalar tiger_cost_network.node[16].content_store 	decision_ratio[16] 	0
scalar tiger_cost_network.node[16].content_store 	correction_factor[16] 	0.0027225701061802
scalar tiger_cost_network.node[16].content_store 	kappa[16] 	1
scalar tiger_cost_network.node[17].core_layer 	interests[17] 	73709
scalar tiger_cost_network.node[17].core_layer 	data[17] 	64023
scalar tiger_cost_network.node[17].content_store 	p_hit[17] 	0.1314086475193
scalar tiger_cost_network.node[17].content_store 	hits[17] 	9686
scalar tiger_cost_network.node[17].content_store 	misses[17] 	64023
scalar tiger_cost_network.node[17].content_store 	decision_yes[17] 	78
scalar tiger_cost_network.node[17].content_store 	decision_no[17] 	63945
scalar tiger_cost_network.node[17].content_store 	decision_ratio[17] 	0.0012183121690642
scalar tiger_cost_network.node[17].content_store 	correction_factor[17] 	0.0027225701061802
scalar tiger_cost_network.node[17].content_store 	kappa[17] 	1
scalar tiger_cost_network.node[18].core_layer 	interests[18] 	75012
scalar tiger_cost_network.node[18].core_layer 	data[18] 	67301
scalar tiger_cost_network.node[18].content_store 	p_hit[18] 	0.1027968858316
scalar tiger_cost_network.node[18].content_store 	hits[18] 	7711
scalar tiger_cost_network.node[18].content_store 	misses[18] 	67301
scalar tiger_cost_network.node[18].content_store 	decision_yes[18] 	80
scalar tiger_cost_network.node[18].content_store 	decision_no[18] 	67221
scalar tiger_cost_network.node[18].content_store 	decision_ratio[18] 	0.001188689618282
scalar tiger_cost_network.node[18].content_store 	correction_factor[18] 	0.0027225701061802
scalar tiger_cost_network.node[18].content_store 	kappa[18] 	1
scalar tiger_cost_network.node[19].core_layer 	interests[19] 	9246
scalar tiger_cost_network.node[19].core_layer 	data[19] 	9246
scalar tiger_cost_network.node[19].content_store 	p_hit[19] 	0
scalar tiger_cost_network.node[19].content_store 	hits[19] 	0
scalar tiger_cost_network.node[19].content_store 	misses[19] 	9246
scalar tiger_cost_network.node[19].content_store 	decision_yes[19] 	0
scalar tiger_cost_network.node[19].content_store 	decision_no[19] 	9246
scalar tiger_cost_network.node[19].content_store 	decision_ratio[19] 	0
scalar tiger_cost_network.node[19].content_store 	correction_factor[19] 	0.0027225701061802
scalar tiger_cost_network.node[19].content_store 	kappa[19] 	1
scalar tiger_cost_network.node[20].core_layer 	interests[20] 	2529
scalar tiger_cost_network.node[20].core_layer 	data[20] 	2529
scalar tiger_cost_network.node[20].content_store 	p_hit[20] 	0
scalar tiger_cost_network.node[20].content_store 	hits[20] 	0
scalar tiger_cost_network.node[20].content_store 	misses[20] 	2529
scalar tiger_cost_network.node[20].content_store 	decision_yes[20] 	0
scalar tiger_cost_network.node[20].content_store 	decision_no[20] 	2529
scalar tiger_cost_network.node[20].content_store 	decision_ratio[20] 	0
scalar tiger_cost_network.node[20].content_store 	correction_factor[20] 	0.0027225701061802
scalar tiger_cost_network.node[20].content_store 	kappa[20] 	1
scalar tiger_cost_network.node[21].core_layer 	interests[21] 	9246
scalar tiger_cost_network.node[21].core_layer 	data[21] 	9246
scalar tiger_cost_network.node[21].content_store 	p_hit[21] 	0
scalar tiger_cost_network.node[21].content_store 	hits[21] 	0
scalar tiger_cost_network.node[21].content_store 	misses[21] 	9246
scalar tiger_cost_network.node[21].content_store 	decision_yes[21] 	0
scalar tiger_cost_network.node[21].content_store 	decision_no[21] 	9246
scalar tiger_cost_network.node[21].content_store 	decision_ratio[21] 	0
scalar tiger_cost_network.node[21].content_store 	correction_factor[21] 	0.0027225701061802
scalar tiger_cost_network.node[21].content_store 	kappa[21] 	1
scalar tiger_cost_network.client[0] 	hdistance[0] 	3.4504563124614
scalar tiger_cost_network.client[0] 	downloads[0] 	179811
scalar tiger_cost_network.client[0] 	avg_time[0] 	0.000653649185
scalar tiger_cost_network.client[4] 	hdistance[4] 	3.0332972900666
scalar tiger_cost_network.client[4] 	downloads[4] 	179414
scalar tiger_cost_network.client[4] 	avg_time[4] 	0.001410173303
scalar tiger_cost_network.client[9] 	hdistance[9] 	2.9749943067891
scalar tiger_cost_network.client[9] 	downloads[9] 	180039
scalar tiger_cost_network.client[9] 	avg_time[9] 	0.001071889009
