version 2
run General-3-20140930-18:23:32-19924
attr D costaware0.01
attr F nrr
attr R lru
attr a 1
attr configname General
attr csize 1e3
attr ctlg 1e5
attr datetime 20140930-18:23:32
attr experiment General
attr inifile omnetpp.ini
attr iterationvars "$net=tiger_cost, $rep=3, $priceratiovalue=10, $weights=0.333_0.333_0.334, $lambda=100, $a=1, $ctlg=1e5, $F=nrr, $ttl=10, $D=costaware0.01, $xi=1, $R=lru, $csize=1e3, $pricebits=0, $window=60, $variance=0.05, $mytime=1800"
attr iterationvars2 "$net=tiger_cost, $rep=3, $priceratiovalue=10, $weights=0.333_0.333_0.334, $lambda=100, $a=1, $ctlg=1e5, $F=nrr, $ttl=10, $D=costaware0.01, $xi=1, $R=lru, $csize=1e3, $pricebits=0, $window=60, $variance=0.05, $mytime=1800, $repetition=0"
attr lambda 100
attr measurement "$net=tiger_cost, $rep=3, $priceratiovalue=10, $weights=0.333_0.333_0.334, $lambda=100, $a=1, $ctlg=1e5, $F=nrr, $ttl=10, $D=costaware0.01, $xi=1, $R=lru, $csize=1e3, $pricebits=0, $window=60, $variance=0.05, $mytime=1800"
attr mytime 1800
attr net tiger_cost
attr network networks.${net=tiger_cost,dtelecom_cost}_network
attr pricebits 0
attr priceratiovalue 10
attr processid 19924
attr rep 3
attr repetition 0
attr replication #0
attr resultdir results
attr runnumber 3
attr seedset 3
attr ttl 10
attr variance 0.05
attr weights 0.333_0.333_0.334
attr window 60
attr xi 1

scalar . 	a 	1
scalar . 	csize 	1e3
scalar . 	ctlg 	1e5
scalar . 	lambda 	100
scalar . 	mytime 	1800
scalar . 	pricebits 	0
scalar . 	priceratiovalue 	10
scalar . 	rep 	3
scalar . 	ttl 	10
scalar . 	variance 	0.05
scalar . 	window 	60
scalar . 	xi 	1
scalar tiger_cost_network.content_distribution 	repo-0 	9
scalar tiger_cost_network.content_distribution 	repo-1 	4
scalar tiger_cost_network.content_distribution 	repo-2 	15
scalar tiger_cost_network.content_distribution 	client-0 	17
scalar tiger_cost_network.content_distribution 	client-1 	16
scalar tiger_cost_network.content_distribution 	client-2 	8
scalar tiger_cost_network.content_distribution 	repo-0_card 	33499
scalar tiger_cost_network.content_distribution 	repo-0_price 	0
scalar tiger_cost_network.content_distribution 	repo-1_card 	33168
scalar tiger_cost_network.content_distribution 	repo-1_price 	1
scalar tiger_cost_network.content_distribution 	repo-2_card 	33333
scalar tiger_cost_network.content_distribution 	repo-2_price 	10
scalar tiger_cost_network.statistics 	repo_popularity[0] 	0.45192118428998
scalar tiger_cost_network.statistics 	repo_popularity[1] 	0.26082990079581
scalar tiger_cost_network.statistics 	repo_popularity[2] 	0.28724891491422
scalar tiger_cost_network.statistics 	stabilization_time 	36060
scalar tiger_cost_network.statistics 	p_hit 	0.062897956024794
scalar tiger_cost_network.statistics 	interests 	83987.409090909
scalar tiger_cost_network.statistics 	data 	59487.909090909
scalar tiger_cost_network.statistics 	hdistance 	3.2191194776668
scalar tiger_cost_network.statistics 	avg_time 	0.001087701381
scalar tiger_cost_network.statistics 	downloads 	538225
scalar tiger_cost_network.statistics 	total_cost 	933955
scalar tiger_cost_network.statistics 	total_replicas 	100000
scalar tiger_cost_network.statistics 	inner_hit 	0.21736820103117
scalar tiger_cost_network.node[0].core_layer 	interests[0] 	0
scalar tiger_cost_network.node[0].core_layer 	data[0] 	0
scalar tiger_cost_network.node[0].core_layer 	repo_int[0] 	421232
scalar tiger_cost_network.node[0].content_store 	p_hit[0] 	-nan
scalar tiger_cost_network.node[0].content_store 	hits[0] 	0
scalar tiger_cost_network.node[0].content_store 	misses[0] 	0
scalar tiger_cost_network.node[0].content_store 	decision_yes[0] 	0
scalar tiger_cost_network.node[0].content_store 	decision_no[0] 	0
scalar tiger_cost_network.node[0].content_store 	decision_ratio[0] 	0
scalar tiger_cost_network.node[0].content_store 	correction_factor[0] 	0.0027225701061802
scalar tiger_cost_network.node[0].content_store 	kappa[0] 	1
scalar tiger_cost_network.node[1].core_layer 	interests[1] 	86039
scalar tiger_cost_network.node[1].core_layer 	data[1] 	81302
scalar tiger_cost_network.node[1].content_store 	p_hit[1] 	0.055056427898976
scalar tiger_cost_network.node[1].content_store 	hits[1] 	4737
scalar tiger_cost_network.node[1].content_store 	misses[1] 	81302
scalar tiger_cost_network.node[1].content_store 	decision_yes[1] 	854
scalar tiger_cost_network.node[1].content_store 	decision_no[1] 	80448
scalar tiger_cost_network.node[1].content_store 	decision_ratio[1] 	0.010504046640919
scalar tiger_cost_network.node[1].content_store 	correction_factor[1] 	0.0027225701061802
scalar tiger_cost_network.node[1].content_store 	kappa[1] 	1
scalar tiger_cost_network.node[2].core_layer 	interests[2] 	82001
scalar tiger_cost_network.node[2].core_layer 	data[2] 	76884
scalar tiger_cost_network.node[2].content_store 	p_hit[2] 	0.062401678028317
scalar tiger_cost_network.node[2].content_store 	hits[2] 	5117
scalar tiger_cost_network.node[2].content_store 	misses[2] 	76884
scalar tiger_cost_network.node[2].content_store 	decision_yes[2] 	837
scalar tiger_cost_network.node[2].content_store 	decision_no[2] 	76047
scalar tiger_cost_network.node[2].content_store 	decision_ratio[2] 	0.010886530357422
scalar tiger_cost_network.node[2].content_store 	correction_factor[2] 	0.0027225701061802
scalar tiger_cost_network.node[2].content_store 	kappa[2] 	1
scalar tiger_cost_network.node[3].core_layer 	interests[3] 	91284
scalar tiger_cost_network.node[3].core_layer 	data[3] 	70463
scalar tiger_cost_network.node[3].content_store 	p_hit[3] 	0.22809035537444
scalar tiger_cost_network.node[3].content_store 	hits[3] 	20821
scalar tiger_cost_network.node[3].content_store 	misses[3] 	70463
scalar tiger_cost_network.node[3].content_store 	decision_yes[3] 	781
scalar tiger_cost_network.node[3].content_store 	decision_no[3] 	69682
scalar tiger_cost_network.node[3].content_store 	decision_ratio[3] 	0.011083831230575
scalar tiger_cost_network.node[3].content_store 	correction_factor[3] 	0.0027225701061802
scalar tiger_cost_network.node[3].content_store 	kappa[3] 	1
scalar tiger_cost_network.node[4].core_layer 	interests[4] 	136204
scalar tiger_cost_network.node[4].core_layer 	repo_load[4] 	95425
scalar tiger_cost_network.node[4].core_layer 	data[4] 	14400
scalar tiger_cost_network.node[4].content_store 	p_hit[4] 	0.19361399077854
scalar tiger_cost_network.node[4].content_store 	hits[4] 	26371
scalar tiger_cost_network.node[4].content_store 	misses[4] 	109833
scalar tiger_cost_network.node[4].content_store 	decision_yes[4] 	274
scalar tiger_cost_network.node[4].content_store 	decision_no[4] 	109551
scalar tiger_cost_network.node[4].content_store 	decision_ratio[4] 	0.0024948782153426
scalar tiger_cost_network.node[4].content_store 	correction_factor[4] 	0.0027225701061802
scalar tiger_cost_network.node[4].content_store 	kappa[4] 	1
scalar tiger_cost_network.node[5].core_layer 	interests[5] 	0
scalar tiger_cost_network.node[5].core_layer 	data[5] 	0
scalar tiger_cost_network.node[5].content_store 	p_hit[5] 	-nan
scalar tiger_cost_network.node[5].content_store 	hits[5] 	0
scalar tiger_cost_network.node[5].content_store 	misses[5] 	0
scalar tiger_cost_network.node[5].content_store 	decision_yes[5] 	0
scalar tiger_cost_network.node[5].content_store 	decision_no[5] 	0
scalar tiger_cost_network.node[5].content_store 	decision_ratio[5] 	0
scalar tiger_cost_network.node[5].content_store 	correction_factor[5] 	0.0027225701061802
scalar tiger_cost_network.node[5].content_store 	kappa[5] 	1
scalar tiger_cost_network.node[6].core_layer 	interests[6] 	173691
scalar tiger_cost_network.node[6].core_layer 	data[6] 	173148
scalar tiger_cost_network.node[6].content_store 	p_hit[6] 	0
scalar tiger_cost_network.node[6].content_store 	hits[6] 	0
scalar tiger_cost_network.node[6].content_store 	misses[6] 	173691
scalar tiger_cost_network.node[6].content_store 	decision_yes[6] 	0
scalar tiger_cost_network.node[6].content_store 	decision_no[6] 	173148
scalar tiger_cost_network.node[6].content_store 	decision_ratio[6] 	0
scalar tiger_cost_network.node[6].content_store 	correction_factor[6] 	0.0027225701061802
scalar tiger_cost_network.node[6].content_store 	kappa[6] 	1
scalar tiger_cost_network.node[7].core_layer 	interests[7] 	173148
scalar tiger_cost_network.node[7].core_layer 	data[7] 	173148
scalar tiger_cost_network.node[7].content_store 	p_hit[7] 	0
scalar tiger_cost_network.node[7].content_store 	hits[7] 	0
scalar tiger_cost_network.node[7].content_store 	misses[7] 	173148
scalar tiger_cost_network.node[7].content_store 	decision_yes[7] 	0
scalar tiger_cost_network.node[7].content_store 	decision_no[7] 	173148
scalar tiger_cost_network.node[7].content_store 	decision_ratio[7] 	0
scalar tiger_cost_network.node[7].content_store 	correction_factor[7] 	0.0027225701061802
scalar tiger_cost_network.node[7].content_store 	kappa[7] 	1
scalar tiger_cost_network.node[8].core_layer 	interests[8] 	341406
scalar tiger_cost_network.node[8].core_layer 	data[8] 	338907
scalar tiger_cost_network.node[8].content_store 	p_hit[8] 	0.006438082517589
scalar tiger_cost_network.node[8].content_store 	hits[8] 	2198
scalar tiger_cost_network.node[8].content_store 	misses[8] 	339208
scalar tiger_cost_network.node[8].content_store 	decision_yes[8] 	806
scalar tiger_cost_network.node[8].content_store 	decision_no[8] 	338101
scalar tiger_cost_network.node[8].content_store 	decision_ratio[8] 	0.0023782335566984
scalar tiger_cost_network.node[8].content_store 	correction_factor[8] 	0.0027225701061802
scalar tiger_cost_network.node[8].content_store 	kappa[8] 	1
scalar tiger_cost_network.node[9].core_layer 	interests[9] 	241954
scalar tiger_cost_network.node[9].core_layer 	repo_load[9] 	241954
scalar tiger_cost_network.node[9].core_layer 	data[9] 	0
scalar tiger_cost_network.node[9].content_store 	p_hit[9] 	0
scalar tiger_cost_network.node[9].content_store 	hits[9] 	0
scalar tiger_cost_network.node[9].content_store 	misses[9] 	241954
scalar tiger_cost_network.node[9].content_store 	decision_yes[9] 	0
scalar tiger_cost_network.node[9].content_store 	decision_no[9] 	241954
scalar tiger_cost_network.node[9].content_store 	decision_ratio[9] 	0
scalar tiger_cost_network.node[9].content_store 	correction_factor[9] 	0.0027225701061802
scalar tiger_cost_network.node[9].content_store 	kappa[9] 	1
scalar tiger_cost_network.node[10].core_layer 	interests[10] 	0
scalar tiger_cost_network.node[10].core_layer 	data[10] 	0
scalar tiger_cost_network.node[10].content_store 	p_hit[10] 	-nan
scalar tiger_cost_network.node[10].content_store 	hits[10] 	0
scalar tiger_cost_network.node[10].content_store 	misses[10] 	0
scalar tiger_cost_network.node[10].content_store 	decision_yes[10] 	0
scalar tiger_cost_network.node[10].content_store 	decision_no[10] 	0
scalar tiger_cost_network.node[10].content_store 	decision_ratio[10] 	0
scalar tiger_cost_network.node[10].content_store 	correction_factor[10] 	0.0027225701061802
scalar tiger_cost_network.node[10].content_store 	kappa[10] 	1
scalar tiger_cost_network.node[11].core_layer 	interests[11] 	0
scalar tiger_cost_network.node[11].core_layer 	data[11] 	0
scalar tiger_cost_network.node[11].content_store 	p_hit[11] 	-nan
scalar tiger_cost_network.node[11].content_store 	hits[11] 	0
scalar tiger_cost_network.node[11].content_store 	misses[11] 	0
scalar tiger_cost_network.node[11].content_store 	decision_yes[11] 	0
scalar tiger_cost_network.node[11].content_store 	decision_no[11] 	0
scalar tiger_cost_network.node[11].content_store 	decision_ratio[11] 	0
scalar tiger_cost_network.node[11].content_store 	correction_factor[11] 	0.0027225701061802
scalar tiger_cost_network.node[11].content_store 	kappa[11] 	1
scalar tiger_cost_network.node[12].core_layer 	interests[12] 	0
scalar tiger_cost_network.node[12].core_layer 	data[12] 	0
scalar tiger_cost_network.node[12].content_store 	p_hit[12] 	-nan
scalar tiger_cost_network.node[12].content_store 	hits[12] 	0
scalar tiger_cost_network.node[12].content_store 	misses[12] 	0
scalar tiger_cost_network.node[12].content_store 	decision_yes[12] 	0
scalar tiger_cost_network.node[12].content_store 	decision_no[12] 	0
scalar tiger_cost_network.node[12].content_store 	decision_ratio[12] 	0
scalar tiger_cost_network.node[12].content_store 	correction_factor[12] 	0.0027225701061802
scalar tiger_cost_network.node[12].content_store 	kappa[12] 	1
scalar tiger_cost_network.node[13].core_layer 	interests[13] 	0
scalar tiger_cost_network.node[13].core_layer 	data[13] 	0
scalar tiger_cost_network.node[13].content_store 	p_hit[13] 	-nan
scalar tiger_cost_network.node[13].content_store 	hits[13] 	0
scalar tiger_cost_network.node[13].content_store 	misses[13] 	0
scalar tiger_cost_network.node[13].content_store 	decision_yes[13] 	0
scalar tiger_cost_network.node[13].content_store 	decision_no[13] 	0
scalar tiger_cost_network.node[13].content_store 	decision_ratio[13] 	0
scalar tiger_cost_network.node[13].content_store 	correction_factor[13] 	0.0027225701061802
scalar tiger_cost_network.node[13].content_store 	kappa[13] 	1
scalar tiger_cost_network.node[14].core_layer 	interests[14] 	0
scalar tiger_cost_network.node[14].core_layer 	data[14] 	0
scalar tiger_cost_network.node[14].content_store 	p_hit[14] 	-nan
scalar tiger_cost_network.node[14].content_store 	hits[14] 	0
scalar tiger_cost_network.node[14].content_store 	misses[14] 	0
scalar tiger_cost_network.node[14].content_store 	decision_yes[14] 	0
scalar tiger_cost_network.node[14].content_store 	decision_no[14] 	0
scalar tiger_cost_network.node[14].content_store 	decision_ratio[14] 	0
scalar tiger_cost_network.node[14].content_store 	correction_factor[14] 	0.0027225701061802
scalar tiger_cost_network.node[14].content_store 	kappa[14] 	1
scalar tiger_cost_network.node[15].core_layer 	interests[15] 	102654
scalar tiger_cost_network.node[15].core_layer 	repo_load[15] 	83853
scalar tiger_cost_network.node[15].core_layer 	data[15] 	0
scalar tiger_cost_network.node[15].content_store 	p_hit[15] 	0.18314921970893
scalar tiger_cost_network.node[15].content_store 	hits[15] 	18801
scalar tiger_cost_network.node[15].content_store 	misses[15] 	83853
scalar tiger_cost_network.node[15].content_store 	decision_yes[15] 	2310
scalar tiger_cost_network.node[15].content_store 	decision_no[15] 	81543
scalar tiger_cost_network.node[15].content_store 	decision_ratio[15] 	0.027548209366391
scalar tiger_cost_network.node[15].content_store 	correction_factor[15] 	0.0027225701061802
scalar tiger_cost_network.node[15].content_store 	kappa[15] 	1
scalar tiger_cost_network.node[16].core_layer 	interests[16] 	229492
scalar tiger_cost_network.node[16].core_layer 	data[16] 	206307
scalar tiger_cost_network.node[16].content_store 	p_hit[16] 	0.099554668572325
scalar tiger_cost_network.node[16].content_store 	hits[16] 	22847
scalar tiger_cost_network.node[16].content_store 	misses[16] 	206645
scalar tiger_cost_network.node[16].content_store 	decision_yes[16] 	1510
scalar tiger_cost_network.node[16].content_store 	decision_no[16] 	204797
scalar tiger_cost_network.node[16].content_store 	decision_ratio[16] 	0.0073191893634244
scalar tiger_cost_network.node[16].content_store 	correction_factor[16] 	0.0027225701061802
scalar tiger_cost_network.node[16].content_store 	kappa[16] 	1
scalar tiger_cost_network.node[17].core_layer 	interests[17] 	189850
scalar tiger_cost_network.node[17].core_layer 	data[17] 	174175
scalar tiger_cost_network.node[17].content_store 	p_hit[17] 	0.080726889649723
scalar tiger_cost_network.node[17].content_store 	hits[17] 	15326
scalar tiger_cost_network.node[17].content_store 	misses[17] 	174524
scalar tiger_cost_network.node[17].content_store 	decision_yes[17] 	827
scalar tiger_cost_network.node[17].content_store 	decision_no[17] 	173348
scalar tiger_cost_network.node[17].content_store 	decision_ratio[17] 	0.0047480981771207
scalar tiger_cost_network.node[17].content_store 	correction_factor[17] 	0.0027225701061802
scalar tiger_cost_network.node[17].content_store 	kappa[17] 	1
scalar tiger_cost_network.node[18].core_layer 	interests[18] 	0
scalar tiger_cost_network.node[18].core_layer 	data[18] 	0
scalar tiger_cost_network.node[18].content_store 	p_hit[18] 	-nan
scalar tiger_cost_network.node[18].content_store 	hits[18] 	0
scalar tiger_cost_network.node[18].content_store 	misses[18] 	0
scalar tiger_cost_network.node[18].content_store 	decision_yes[18] 	0
scalar tiger_cost_network.node[18].content_store 	decision_no[18] 	0
scalar tiger_cost_network.node[18].content_store 	decision_ratio[18] 	0
scalar tiger_cost_network.node[18].content_store 	correction_factor[18] 	0.0027225701061802
scalar tiger_cost_network.node[18].content_store 	kappa[18] 	1
scalar tiger_cost_network.node[19].core_layer 	interests[19] 	0
scalar tiger_cost_network.node[19].core_layer 	data[19] 	0
scalar tiger_cost_network.node[19].content_store 	p_hit[19] 	-nan
scalar tiger_cost_network.node[19].content_store 	hits[19] 	0
scalar tiger_cost_network.node[19].content_store 	misses[19] 	0
scalar tiger_cost_network.node[19].content_store 	decision_yes[19] 	0
scalar tiger_cost_network.node[19].content_store 	decision_no[19] 	0
scalar tiger_cost_network.node[19].content_store 	decision_ratio[19] 	0
scalar tiger_cost_network.node[19].content_store 	correction_factor[19] 	0.0027225701061802
scalar tiger_cost_network.node[19].content_store 	kappa[19] 	1
scalar tiger_cost_network.node[20].core_layer 	interests[20] 	0
scalar tiger_cost_network.node[20].core_layer 	data[20] 	0
scalar tiger_cost_network.node[20].content_store 	p_hit[20] 	-nan
scalar tiger_cost_network.node[20].content_store 	hits[20] 	0
scalar tiger_cost_network.node[20].content_store 	misses[20] 	0
scalar tiger_cost_network.node[20].content_store 	decision_yes[20] 	0
scalar tiger_cost_network.node[20].content_store 	decision_no[20] 	0
scalar tiger_cost_network.node[20].content_store 	decision_ratio[20] 	0
scalar tiger_cost_network.node[20].content_store 	correction_factor[20] 	0.0027225701061802
scalar tiger_cost_network.node[20].content_store 	kappa[20] 	1
scalar tiger_cost_network.node[21].core_layer 	interests[21] 	0
scalar tiger_cost_network.node[21].core_layer 	data[21] 	0
scalar tiger_cost_network.node[21].content_store 	p_hit[21] 	-nan
scalar tiger_cost_network.node[21].content_store 	hits[21] 	0
scalar tiger_cost_network.node[21].content_store 	misses[21] 	0
scalar tiger_cost_network.node[21].content_store 	decision_yes[21] 	0
scalar tiger_cost_network.node[21].content_store 	decision_no[21] 	0
scalar tiger_cost_network.node[21].content_store 	decision_ratio[21] 	0
scalar tiger_cost_network.node[21].content_store 	correction_factor[21] 	0.0027225701061802
scalar tiger_cost_network.node[21].content_store 	kappa[21] 	1
scalar tiger_cost_network.client[8] 	hdistance[8] 	3.1624398360638
scalar tiger_cost_network.client[8] 	downloads[8] 	179094
scalar tiger_cost_network.client[8] 	avg_time[8] 	0.001129474715
scalar tiger_cost_network.client[16] 	hdistance[16] 	3.1391333370418
scalar tiger_cost_network.client[16] 	downloads[16] 	179770
scalar tiger_cost_network.client[16] 	avg_time[16] 	0.00105896859
scalar tiger_cost_network.client[17] 	hdistance[17] 	3.3557852598948
scalar tiger_cost_network.client[17] 	downloads[17] 	179361
scalar tiger_cost_network.client[17] 	avg_time[17] 	0.001074660838
