version 2
run General-28-20140908-17:52:05-16972
attr D costprobprodcorr0.01
attr F nrr
attr R lru
attr a 1
attr configname General
attr csize 1e3
attr ctlg 1e5
attr datetime 20140908-17:52:05
attr experiment General
attr inifile omnetpp.ini
attr iterationvars "$net=tiger_cost, $rep=20, $priceratiovalue=10, $weights=0.333_0.333_0.334, $lambda=100, $a=1, $ctlg=1e5, $F=nrr, $ttl=10, $D=costprobprodcorr0.01, $xi=1, $R=lru, $csize=1e3, $pricebits=0, $window=60, $variance=0.05, $mytime=1800"
attr iterationvars2 "$net=tiger_cost, $rep=20, $priceratiovalue=10, $weights=0.333_0.333_0.334, $lambda=100, $a=1, $ctlg=1e5, $F=nrr, $ttl=10, $D=costprobprodcorr0.01, $xi=1, $R=lru, $csize=1e3, $pricebits=0, $window=60, $variance=0.05, $mytime=1800, $repetition=0"
attr lambda 100
attr measurement "$net=tiger_cost, $rep=20, $priceratiovalue=10, $weights=0.333_0.333_0.334, $lambda=100, $a=1, $ctlg=1e5, $F=nrr, $ttl=10, $D=costprobprodcorr0.01, $xi=1, $R=lru, $csize=1e3, $pricebits=0, $window=60, $variance=0.05, $mytime=1800"
attr mytime 1800
attr net tiger_cost
attr network networks.${net=level3_cost,tiger_cost,dtelecom_cost}_network
attr pricebits 0
attr priceratiovalue 10
attr processid 16972
attr rep 20
attr repetition 0
attr replication #0
attr resultdir results
attr runnumber 28
attr seedset 20
attr ttl 10
attr variance 0.05
attr weights 0.333_0.333_0.334
attr window 60
attr xi 1

scalar . 	a 	1
scalar . 	csize 	1e3
scalar . 	ctlg 	1e5
scalar . 	lambda 	100
scalar . 	mytime 	1800
scalar . 	pricebits 	0
scalar . 	priceratiovalue 	10
scalar . 	rep 	20
scalar . 	ttl 	10
scalar . 	variance 	0.05
scalar . 	window 	60
scalar . 	xi 	1
scalar tiger_cost_network.content_distribution 	repo-0 	3
scalar tiger_cost_network.content_distribution 	repo-1 	18
scalar tiger_cost_network.content_distribution 	repo-2 	2
scalar tiger_cost_network.content_distribution 	client-0 	15
scalar tiger_cost_network.content_distribution 	client-1 	2
scalar tiger_cost_network.content_distribution 	client-2 	10
scalar tiger_cost_network.content_distribution 	repo-0_card 	33323
scalar tiger_cost_network.content_distribution 	repo-0_price 	0
scalar tiger_cost_network.content_distribution 	repo-1_card 	33295
scalar tiger_cost_network.content_distribution 	repo-1_price 	1
scalar tiger_cost_network.content_distribution 	repo-2_card 	33382
scalar tiger_cost_network.content_distribution 	repo-2_price 	10
scalar tiger_cost_network.statistics 	repo_popularity[0] 	0.32913833141561
scalar tiger_cost_network.statistics 	repo_popularity[1] 	0.36392115774491
scalar tiger_cost_network.statistics 	repo_popularity[2] 	0.3069405108395
scalar tiger_cost_network.statistics 	stabilization_time 	36060
scalar tiger_cost_network.statistics 	p_hit 	0.11932268388254
scalar tiger_cost_network.statistics 	interests 	69125.772727273
scalar tiger_cost_network.statistics 	data 	44525.5
scalar tiger_cost_network.statistics 	hdistance 	2.4760132047084
scalar tiger_cost_network.statistics 	avg_time 	0.000656301714
scalar tiger_cost_network.statistics 	downloads 	540803
scalar tiger_cost_network.statistics 	total_cost 	1091682
scalar tiger_cost_network.statistics 	total_replicas 	100000
scalar tiger_cost_network.statistics 	inner_hit 	0.33588940889751
scalar tiger_cost_network.statistics 	interests_sent 	541206
scalar tiger_cost_network.node[0].core_layer 	interests[0] 	85836
scalar tiger_cost_network.node[0].core_layer 	data[0] 	75003
scalar tiger_cost_network.node[0].core_layer 	repo_int[0] 	359153
scalar tiger_cost_network.node[0].content_store 	p_hit[0] 	0.12617083741088
scalar tiger_cost_network.node[0].content_store 	hits[0] 	10830
scalar tiger_cost_network.node[0].content_store 	misses[0] 	75006
scalar tiger_cost_network.node[0].content_store 	decision_yes[0] 	147
scalar tiger_cost_network.node[0].content_store 	decision_no[0] 	74856
scalar tiger_cost_network.node[0].content_store 	decision_ratio[0] 	0.0019599216031359
scalar tiger_cost_network.node[0].content_store 	correction_factor[0] 	0.0027225701061802
scalar tiger_cost_network.node[0].content_store 	xi[0] 	1
scalar tiger_cost_network.node[1].core_layer 	interests[1] 	106552
scalar tiger_cost_network.node[1].core_layer 	data[1] 	100652
scalar tiger_cost_network.node[1].content_store 	p_hit[1] 	0.055372024926796
scalar tiger_cost_network.node[1].content_store 	hits[1] 	5900
scalar tiger_cost_network.node[1].content_store 	misses[1] 	100652
scalar tiger_cost_network.node[1].content_store 	decision_yes[1] 	815
scalar tiger_cost_network.node[1].content_store 	decision_no[1] 	99837
scalar tiger_cost_network.node[1].content_store 	decision_ratio[1] 	0.0080972062154751
scalar tiger_cost_network.node[1].content_store 	correction_factor[1] 	0.0027225701061802
scalar tiger_cost_network.node[1].content_store 	xi[1] 	1
scalar tiger_cost_network.node[2].core_layer 	interests[2] 	344472
scalar tiger_cost_network.node[2].core_layer 	repo_load[2] 	101206
scalar tiger_cost_network.node[2].core_layer 	data[2] 	208688
scalar tiger_cost_network.node[2].content_store 	p_hit[2] 	0.099532037437005
scalar tiger_cost_network.node[2].content_store 	hits[2] 	34286
scalar tiger_cost_network.node[2].content_store 	misses[2] 	310186
scalar tiger_cost_network.node[2].content_store 	decision_yes[2] 	2843
scalar tiger_cost_network.node[2].content_store 	decision_no[2] 	307051
scalar tiger_cost_network.node[2].content_store 	decision_ratio[2] 	0.0091741046938631
scalar tiger_cost_network.node[2].content_store 	correction_factor[2] 	0.0027225701061802
scalar tiger_cost_network.node[2].content_store 	xi[2] 	1
scalar tiger_cost_network.node[3].core_layer 	interests[3] 	254499
scalar tiger_cost_network.node[3].core_layer 	repo_load[3] 	178325
scalar tiger_cost_network.node[3].core_layer 	data[3] 	66684
scalar tiger_cost_network.node[3].content_store 	p_hit[3] 	0.037288948090169
scalar tiger_cost_network.node[3].content_store 	hits[3] 	9490
scalar tiger_cost_network.node[3].content_store 	misses[3] 	245009
scalar tiger_cost_network.node[3].content_store 	decision_yes[3] 	902
scalar tiger_cost_network.node[3].content_store 	decision_no[3] 	244107
scalar tiger_cost_network.node[3].content_store 	decision_ratio[3] 	0.0036814974143807
scalar tiger_cost_network.node[3].content_store 	correction_factor[3] 	0.0027225701061802
scalar tiger_cost_network.node[3].content_store 	xi[3] 	1
scalar tiger_cost_network.node[4].core_layer 	interests[4] 	2248
scalar tiger_cost_network.node[4].core_layer 	data[4] 	2248
scalar tiger_cost_network.node[4].content_store 	p_hit[4] 	0
scalar tiger_cost_network.node[4].content_store 	hits[4] 	0
scalar tiger_cost_network.node[4].content_store 	misses[4] 	2248
scalar tiger_cost_network.node[4].content_store 	decision_yes[4] 	0
scalar tiger_cost_network.node[4].content_store 	decision_no[4] 	2248
scalar tiger_cost_network.node[4].content_store 	decision_ratio[4] 	0
scalar tiger_cost_network.node[4].content_store 	correction_factor[4] 	0.0027225701061802
scalar tiger_cost_network.node[4].content_store 	xi[4] 	1
scalar tiger_cost_network.node[5].core_layer 	interests[5] 	0
scalar tiger_cost_network.node[5].core_layer 	data[5] 	0
scalar tiger_cost_network.node[5].content_store 	p_hit[5] 	-nan
scalar tiger_cost_network.node[5].content_store 	hits[5] 	0
scalar tiger_cost_network.node[5].content_store 	misses[5] 	0
scalar tiger_cost_network.node[5].content_store 	decision_yes[5] 	0
scalar tiger_cost_network.node[5].content_store 	decision_no[5] 	0
scalar tiger_cost_network.node[5].content_store 	decision_ratio[5] 	0
scalar tiger_cost_network.node[5].content_store 	correction_factor[5] 	0.0027225701061802
scalar tiger_cost_network.node[5].content_store 	xi[5] 	1
scalar tiger_cost_network.node[6].core_layer 	interests[6] 	0
scalar tiger_cost_network.node[6].core_layer 	data[6] 	0
scalar tiger_cost_network.node[6].content_store 	p_hit[6] 	-nan
scalar tiger_cost_network.node[6].content_store 	hits[6] 	0
scalar tiger_cost_network.node[6].content_store 	misses[6] 	0
scalar tiger_cost_network.node[6].content_store 	decision_yes[6] 	0
scalar tiger_cost_network.node[6].content_store 	decision_no[6] 	0
scalar tiger_cost_network.node[6].content_store 	decision_ratio[6] 	0
scalar tiger_cost_network.node[6].content_store 	correction_factor[6] 	0.0027225701061802
scalar tiger_cost_network.node[6].content_store 	xi[6] 	1
scalar tiger_cost_network.node[7].core_layer 	interests[7] 	0
scalar tiger_cost_network.node[7].core_layer 	data[7] 	0
scalar tiger_cost_network.node[7].content_store 	p_hit[7] 	-nan
scalar tiger_cost_network.node[7].content_store 	hits[7] 	0
scalar tiger_cost_network.node[7].content_store 	misses[7] 	0
scalar tiger_cost_network.node[7].content_store 	decision_yes[7] 	0
scalar tiger_cost_network.node[7].content_store 	decision_no[7] 	0
scalar tiger_cost_network.node[7].content_store 	decision_ratio[7] 	0
scalar tiger_cost_network.node[7].content_store 	correction_factor[7] 	0.0027225701061802
scalar tiger_cost_network.node[7].content_store 	xi[7] 	1
scalar tiger_cost_network.node[8].core_layer 	interests[8] 	0
scalar tiger_cost_network.node[8].core_layer 	data[8] 	0
scalar tiger_cost_network.node[8].content_store 	p_hit[8] 	-nan
scalar tiger_cost_network.node[8].content_store 	hits[8] 	0
scalar tiger_cost_network.node[8].content_store 	misses[8] 	0
scalar tiger_cost_network.node[8].content_store 	decision_yes[8] 	0
scalar tiger_cost_network.node[8].content_store 	decision_no[8] 	0
scalar tiger_cost_network.node[8].content_store 	decision_ratio[8] 	0
scalar tiger_cost_network.node[8].content_store 	correction_factor[8] 	0.0027225701061802
scalar tiger_cost_network.node[8].content_store 	xi[8] 	1
scalar tiger_cost_network.node[9].core_layer 	interests[9] 	0
scalar tiger_cost_network.node[9].core_layer 	data[9] 	0
scalar tiger_cost_network.node[9].content_store 	p_hit[9] 	-nan
scalar tiger_cost_network.node[9].content_store 	hits[9] 	0
scalar tiger_cost_network.node[9].content_store 	misses[9] 	0
scalar tiger_cost_network.node[9].content_store 	decision_yes[9] 	0
scalar tiger_cost_network.node[9].content_store 	decision_no[9] 	0
scalar tiger_cost_network.node[9].content_store 	decision_ratio[9] 	0
scalar tiger_cost_network.node[9].content_store 	correction_factor[9] 	0.0027225701061802
scalar tiger_cost_network.node[9].content_store 	xi[9] 	1
scalar tiger_cost_network.node[10].core_layer 	interests[10] 	181894
scalar tiger_cost_network.node[10].core_layer 	data[10] 	169641
scalar tiger_cost_network.node[10].content_store 	p_hit[10] 	0.066863118079761
scalar tiger_cost_network.node[10].content_store 	hits[10] 	12162
scalar tiger_cost_network.node[10].content_store 	misses[10] 	169732
scalar tiger_cost_network.node[10].content_store 	decision_yes[10] 	922
scalar tiger_cost_network.node[10].content_store 	decision_no[10] 	168719
scalar tiger_cost_network.node[10].content_store 	decision_ratio[10] 	0.0054350068674436
scalar tiger_cost_network.node[10].content_store 	correction_factor[10] 	0.0027225701061802
scalar tiger_cost_network.node[10].content_store 	xi[10] 	1
scalar tiger_cost_network.node[11].core_layer 	interests[11] 	71612
scalar tiger_cost_network.node[11].core_layer 	data[11] 	60213
scalar tiger_cost_network.node[11].content_store 	p_hit[11] 	0.159177232866
scalar tiger_cost_network.node[11].content_store 	hits[11] 	11399
scalar tiger_cost_network.node[11].content_store 	misses[11] 	60213
scalar tiger_cost_network.node[11].content_store 	decision_yes[11] 	71
scalar tiger_cost_network.node[11].content_store 	decision_no[11] 	60142
scalar tiger_cost_network.node[11].content_store 	decision_ratio[11] 	0.0011791473602046
scalar tiger_cost_network.node[11].content_store 	correction_factor[11] 	0.0027225701061802
scalar tiger_cost_network.node[11].content_store 	xi[11] 	1
scalar tiger_cost_network.node[12].core_layer 	interests[12] 	103988
scalar tiger_cost_network.node[12].core_layer 	data[12] 	50875
scalar tiger_cost_network.node[12].content_store 	p_hit[12] 	0.51076085702196
scalar tiger_cost_network.node[12].content_store 	hits[12] 	53113
scalar tiger_cost_network.node[12].content_store 	misses[12] 	50875
scalar tiger_cost_network.node[12].content_store 	decision_yes[12] 	72
scalar tiger_cost_network.node[12].content_store 	decision_no[12] 	50803
scalar tiger_cost_network.node[12].content_store 	decision_ratio[12] 	0.0014152334152334
scalar tiger_cost_network.node[12].content_store 	correction_factor[12] 	0.0027225701061802
scalar tiger_cost_network.node[12].content_store 	xi[12] 	1
scalar tiger_cost_network.node[13].core_layer 	interests[13] 	0
scalar tiger_cost_network.node[13].core_layer 	data[13] 	0
scalar tiger_cost_network.node[13].content_store 	p_hit[13] 	-nan
scalar tiger_cost_network.node[13].content_store 	hits[13] 	0
scalar tiger_cost_network.node[13].content_store 	misses[13] 	0
scalar tiger_cost_network.node[13].content_store 	decision_yes[13] 	0
scalar tiger_cost_network.node[13].content_store 	decision_no[13] 	0
scalar tiger_cost_network.node[13].content_store 	decision_ratio[13] 	0
scalar tiger_cost_network.node[13].content_store 	correction_factor[13] 	0.0027225701061802
scalar tiger_cost_network.node[13].content_store 	xi[13] 	1
scalar tiger_cost_network.node[14].core_layer 	interests[14] 	0
scalar tiger_cost_network.node[14].core_layer 	data[14] 	0
scalar tiger_cost_network.node[14].content_store 	p_hit[14] 	-nan
scalar tiger_cost_network.node[14].content_store 	hits[14] 	0
scalar tiger_cost_network.node[14].content_store 	misses[14] 	0
scalar tiger_cost_network.node[14].content_store 	decision_yes[14] 	0
scalar tiger_cost_network.node[14].content_store 	decision_no[14] 	0
scalar tiger_cost_network.node[14].content_store 	decision_ratio[14] 	0
scalar tiger_cost_network.node[14].content_store 	correction_factor[14] 	0.0027225701061802
scalar tiger_cost_network.node[14].content_store 	xi[14] 	1
scalar tiger_cost_network.node[15].core_layer 	interests[15] 	179928
scalar tiger_cost_network.node[15].core_layer 	data[15] 	172939
scalar tiger_cost_network.node[15].content_store 	p_hit[15] 	0.03770397047708
scalar tiger_cost_network.node[15].content_store 	hits[15] 	6784
scalar tiger_cost_network.node[15].content_store 	misses[15] 	173144
scalar tiger_cost_network.node[15].content_store 	decision_yes[15] 	901
scalar tiger_cost_network.node[15].content_store 	decision_no[15] 	172038
scalar tiger_cost_network.node[15].content_store 	decision_ratio[15] 	0.0052099295127184
scalar tiger_cost_network.node[15].content_store 	correction_factor[15] 	0.0027225701061802
scalar tiger_cost_network.node[15].content_store 	xi[15] 	1
scalar tiger_cost_network.node[16].core_layer 	interests[16] 	41302
scalar tiger_cost_network.node[16].core_layer 	data[16] 	37340
scalar tiger_cost_network.node[16].content_store 	p_hit[16] 	0.095927557987507
scalar tiger_cost_network.node[16].content_store 	hits[16] 	3962
scalar tiger_cost_network.node[16].content_store 	misses[16] 	37340
scalar tiger_cost_network.node[16].content_store 	decision_yes[16] 	73
scalar tiger_cost_network.node[16].content_store 	decision_no[16] 	37267
scalar tiger_cost_network.node[16].content_store 	decision_ratio[16] 	0.0019550080342796
scalar tiger_cost_network.node[16].content_store 	correction_factor[16] 	0.0027225701061802
scalar tiger_cost_network.node[16].content_store 	xi[16] 	1
scalar tiger_cost_network.node[17].core_layer 	interests[17] 	38155
scalar tiger_cost_network.node[17].core_layer 	data[17] 	35278
scalar tiger_cost_network.node[17].content_store 	p_hit[17] 	0.075402961603984
scalar tiger_cost_network.node[17].content_store 	hits[17] 	2877
scalar tiger_cost_network.node[17].content_store 	misses[17] 	35278
scalar tiger_cost_network.node[17].content_store 	decision_yes[17] 	77
scalar tiger_cost_network.node[17].content_store 	decision_no[17] 	35201
scalar tiger_cost_network.node[17].content_store 	decision_ratio[17] 	0.0021826634162934
scalar tiger_cost_network.node[17].content_store 	correction_factor[17] 	0.0027225701061802
scalar tiger_cost_network.node[17].content_store 	xi[17] 	1
scalar tiger_cost_network.node[18].core_layer 	interests[18] 	110281
scalar tiger_cost_network.node[18].core_layer 	repo_load[18] 	79622
scalar tiger_cost_network.node[18].core_layer 	data[18] 	0
scalar tiger_cost_network.node[18].content_store 	p_hit[18] 	0.2780079977512
scalar tiger_cost_network.node[18].content_store 	hits[18] 	30659
scalar tiger_cost_network.node[18].content_store 	misses[18] 	79622
scalar tiger_cost_network.node[18].content_store 	decision_yes[18] 	220
scalar tiger_cost_network.node[18].content_store 	decision_no[18] 	79402
scalar tiger_cost_network.node[18].content_store 	decision_ratio[18] 	0.0027630554369395
scalar tiger_cost_network.node[18].content_store 	correction_factor[18] 	0.0027225701061802
scalar tiger_cost_network.node[18].content_store 	xi[18] 	1
scalar tiger_cost_network.node[19].core_layer 	interests[19] 	0
scalar tiger_cost_network.node[19].core_layer 	data[19] 	0
scalar tiger_cost_network.node[19].content_store 	p_hit[19] 	-nan
scalar tiger_cost_network.node[19].content_store 	hits[19] 	0
scalar tiger_cost_network.node[19].content_store 	misses[19] 	0
scalar tiger_cost_network.node[19].content_store 	decision_yes[19] 	0
scalar tiger_cost_network.node[19].content_store 	decision_no[19] 	0
scalar tiger_cost_network.node[19].content_store 	decision_ratio[19] 	0
scalar tiger_cost_network.node[19].content_store 	correction_factor[19] 	0.0027225701061802
scalar tiger_cost_network.node[19].content_store 	xi[19] 	1
scalar tiger_cost_network.node[20].core_layer 	interests[20] 	0
scalar tiger_cost_network.node[20].core_layer 	data[20] 	0
scalar tiger_cost_network.node[20].content_store 	p_hit[20] 	-nan
scalar tiger_cost_network.node[20].content_store 	hits[20] 	0
scalar tiger_cost_network.node[20].content_store 	misses[20] 	0
scalar tiger_cost_network.node[20].content_store 	decision_yes[20] 	0
scalar tiger_cost_network.node[20].content_store 	decision_no[20] 	0
scalar tiger_cost_network.node[20].content_store 	decision_ratio[20] 	0
scalar tiger_cost_network.node[20].content_store 	correction_factor[20] 	0.0027225701061802
scalar tiger_cost_network.node[20].content_store 	xi[20] 	1
scalar tiger_cost_network.node[21].core_layer 	interests[21] 	0
scalar tiger_cost_network.node[21].core_layer 	data[21] 	0
scalar tiger_cost_network.node[21].content_store 	p_hit[21] 	-nan
scalar tiger_cost_network.node[21].content_store 	hits[21] 	0
scalar tiger_cost_network.node[21].content_store 	misses[21] 	0
scalar tiger_cost_network.node[21].content_store 	decision_yes[21] 	0
scalar tiger_cost_network.node[21].content_store 	decision_no[21] 	0
scalar tiger_cost_network.node[21].content_store 	decision_ratio[21] 	0
scalar tiger_cost_network.node[21].content_store 	correction_factor[21] 	0.0027225701061802
scalar tiger_cost_network.node[21].content_store 	xi[21] 	1
scalar tiger_cost_network.client[2] 	hdistance[2] 	1.8551216594863
scalar tiger_cost_network.client[2] 	downloads[2] 	180586
scalar tiger_cost_network.client[2] 	avg_time[2] 	0.000570455347
scalar tiger_cost_network.client[2] 	interests_sent[2] 	180693
scalar tiger_cost_network.client[10] 	hdistance[10] 	3.0226752848257
scalar tiger_cost_network.client[10] 	downloads[10] 	180549
scalar tiger_cost_network.client[10] 	avg_time[10] 	0.000804488156
scalar tiger_cost_network.client[10] 	interests_sent[10] 	180640
scalar tiger_cost_network.client[15] 	hdistance[15] 	2.5502426698132
scalar tiger_cost_network.client[15] 	downloads[15] 	179668
scalar tiger_cost_network.client[15] 	avg_time[15] 	0.00059396164
scalar tiger_cost_network.client[15] 	interests_sent[15] 	179873
