version 2
run General-9-20140930-16:53:35-22121
attr D costaware0.01
attr F nrr
attr R lru
attr a 1
attr configname General
attr csize 1e3
attr ctlg 1e5
attr datetime 20140930-16:53:35
attr experiment General
attr inifile omnetpp.ini
attr iterationvars "$net=tiger_cost, $rep=17, $priceratiovalue=10, $weights=0.333_0.333_0.334, $lambda=100, $a=1, $ctlg=1e5, $F=nrr, $ttl=10, $D=costaware0.01, $xi=1, $R=lru, $csize=1e3, $pricebits=0, $window=60, $variance=0.05, $mytime=1800"
attr iterationvars2 "$net=tiger_cost, $rep=17, $priceratiovalue=10, $weights=0.333_0.333_0.334, $lambda=100, $a=1, $ctlg=1e5, $F=nrr, $ttl=10, $D=costaware0.01, $xi=1, $R=lru, $csize=1e3, $pricebits=0, $window=60, $variance=0.05, $mytime=1800, $repetition=0"
attr lambda 100
attr measurement "$net=tiger_cost, $rep=17, $priceratiovalue=10, $weights=0.333_0.333_0.334, $lambda=100, $a=1, $ctlg=1e5, $F=nrr, $ttl=10, $D=costaware0.01, $xi=1, $R=lru, $csize=1e3, $pricebits=0, $window=60, $variance=0.05, $mytime=1800"
attr mytime 1800
attr net tiger_cost
attr network networks.${net=level3_cost,tiger_cost,dtelecom_cost}_network
attr pricebits 0
attr priceratiovalue 10
attr processid 22121
attr rep 17
attr repetition 0
attr replication #0
attr resultdir results
attr runnumber 9
attr seedset 17
attr ttl 10
attr variance 0.05
attr weights 0.333_0.333_0.334
attr window 60
attr xi 1

scalar . 	a 	1
scalar . 	csize 	1e3
scalar . 	ctlg 	1e5
scalar . 	lambda 	100
scalar . 	mytime 	1800
scalar . 	pricebits 	0
scalar . 	priceratiovalue 	10
scalar . 	rep 	17
scalar . 	ttl 	10
scalar . 	variance 	0.05
scalar . 	window 	60
scalar . 	xi 	1
scalar tiger_cost_network.content_distribution 	repo-0 	21
scalar tiger_cost_network.content_distribution 	repo-1 	11
scalar tiger_cost_network.content_distribution 	repo-2 	13
scalar tiger_cost_network.content_distribution 	client-0 	0
scalar tiger_cost_network.content_distribution 	client-1 	5
scalar tiger_cost_network.content_distribution 	client-2 	10
scalar tiger_cost_network.content_distribution 	repo-0_card 	33434
scalar tiger_cost_network.content_distribution 	repo-0_price 	10
scalar tiger_cost_network.content_distribution 	repo-1_card 	33236
scalar tiger_cost_network.content_distribution 	repo-1_price 	0
scalar tiger_cost_network.content_distribution 	repo-2_card 	33330
scalar tiger_cost_network.content_distribution 	repo-2_price 	1
scalar tiger_cost_network.statistics 	repo_popularity[0] 	0.28775972584778
scalar tiger_cost_network.statistics 	repo_popularity[1] 	0.38489717054386
scalar tiger_cost_network.statistics 	repo_popularity[2] 	0.32734310360837
scalar tiger_cost_network.statistics 	stabilization_time 	36060
scalar tiger_cost_network.statistics 	p_hit 	0.098502150572223
scalar tiger_cost_network.statistics 	interests 	83371.045454545
scalar tiger_cost_network.statistics 	data 	58834.363636364
scalar tiger_cost_network.statistics 	hdistance 	3.0636309302217
scalar tiger_cost_network.statistics 	avg_time 	0.000907672193
scalar tiger_cost_network.statistics 	downloads 	539415
scalar tiger_cost_network.statistics 	total_cost 	840288
scalar tiger_cost_network.statistics 	total_replicas 	100000
scalar tiger_cost_network.statistics 	inner_hit 	0.33510376982472
scalar tiger_cost_network.node[0].core_layer 	interests[0] 	261670
scalar tiger_cost_network.node[0].core_layer 	data[0] 	249193
scalar tiger_cost_network.node[0].core_layer 	repo_int[0] 	358655
scalar tiger_cost_network.node[0].content_store 	p_hit[0] 	0.047097489203959
scalar tiger_cost_network.node[0].content_store 	hits[0] 	12324
scalar tiger_cost_network.node[0].content_store 	misses[0] 	249346
scalar tiger_cost_network.node[0].content_store 	decision_yes[0] 	684
scalar tiger_cost_network.node[0].content_store 	decision_no[0] 	248509
scalar tiger_cost_network.node[0].content_store 	decision_ratio[0] 	0.0027448604094015
scalar tiger_cost_network.node[0].content_store 	correction_factor[0] 	0.0027225701061802
scalar tiger_cost_network.node[0].content_store 	kappa[0] 	1
scalar tiger_cost_network.node[1].core_layer 	interests[1] 	66558
scalar tiger_cost_network.node[1].core_layer 	data[1] 	56368
scalar tiger_cost_network.node[1].content_store 	p_hit[1] 	0.15308452778028
scalar tiger_cost_network.node[1].content_store 	hits[1] 	10189
scalar tiger_cost_network.node[1].content_store 	misses[1] 	56369
scalar tiger_cost_network.node[1].content_store 	decision_yes[1] 	60
scalar tiger_cost_network.node[1].content_store 	decision_no[1] 	56308
scalar tiger_cost_network.node[1].content_store 	decision_ratio[1] 	0.0010644337212603
scalar tiger_cost_network.node[1].content_store 	correction_factor[1] 	0.0027225701061802
scalar tiger_cost_network.node[1].content_store 	kappa[1] 	1
scalar tiger_cost_network.node[2].core_layer 	interests[2] 	113023
scalar tiger_cost_network.node[2].core_layer 	data[2] 	85468
scalar tiger_cost_network.node[2].content_store 	p_hit[2] 	0.2437645435
scalar tiger_cost_network.node[2].content_store 	hits[2] 	27551
scalar tiger_cost_network.node[2].content_store 	misses[2] 	85472
scalar tiger_cost_network.node[2].content_store 	decision_yes[2] 	154
scalar tiger_cost_network.node[2].content_store 	decision_no[2] 	85314
scalar tiger_cost_network.node[2].content_store 	decision_ratio[2] 	0.0018018439649927
scalar tiger_cost_network.node[2].content_store 	correction_factor[2] 	0.0027225701061802
scalar tiger_cost_network.node[2].content_store 	kappa[2] 	1
scalar tiger_cost_network.node[3].core_layer 	interests[3] 	65103
scalar tiger_cost_network.node[3].core_layer 	data[3] 	51394
scalar tiger_cost_network.node[3].content_store 	p_hit[3] 	0.21057401348632
scalar tiger_cost_network.node[3].content_store 	hits[3] 	13709
scalar tiger_cost_network.node[3].content_store 	misses[3] 	51394
scalar tiger_cost_network.node[3].content_store 	decision_yes[3] 	66
scalar tiger_cost_network.node[3].content_store 	decision_no[3] 	51328
scalar tiger_cost_network.node[3].content_store 	decision_ratio[3] 	0.0012841965988248
scalar tiger_cost_network.node[3].content_store 	correction_factor[3] 	0.0027225701061802
scalar tiger_cost_network.node[3].content_store 	kappa[3] 	1
scalar tiger_cost_network.node[4].core_layer 	interests[4] 	68325
scalar tiger_cost_network.node[4].core_layer 	data[4] 	49875
scalar tiger_cost_network.node[4].content_store 	p_hit[4] 	0.27001829491401
scalar tiger_cost_network.node[4].content_store 	hits[4] 	18449
scalar tiger_cost_network.node[4].content_store 	misses[4] 	49876
scalar tiger_cost_network.node[4].content_store 	decision_yes[4] 	72
scalar tiger_cost_network.node[4].content_store 	decision_no[4] 	49803
scalar tiger_cost_network.node[4].content_store 	decision_ratio[4] 	0.0014436090225564
scalar tiger_cost_network.node[4].content_store 	correction_factor[4] 	0.0027225701061802
scalar tiger_cost_network.node[4].content_store 	kappa[4] 	1
scalar tiger_cost_network.node[5].core_layer 	interests[5] 	180886
scalar tiger_cost_network.node[5].core_layer 	data[5] 	178851
scalar tiger_cost_network.node[5].content_store 	p_hit[5] 	0.0097741118715655
scalar tiger_cost_network.node[5].content_store 	hits[5] 	1768
scalar tiger_cost_network.node[5].content_store 	misses[5] 	179118
scalar tiger_cost_network.node[5].content_store 	decision_yes[5] 	771
scalar tiger_cost_network.node[5].content_store 	decision_no[5] 	178080
scalar tiger_cost_network.node[5].content_store 	decision_ratio[5] 	0.0043108509317812
scalar tiger_cost_network.node[5].content_store 	correction_factor[5] 	0.0027225701061802
scalar tiger_cost_network.node[5].content_store 	kappa[5] 	1
scalar tiger_cost_network.node[6].core_layer 	interests[6] 	45290
scalar tiger_cost_network.node[6].core_layer 	data[6] 	43919
scalar tiger_cost_network.node[6].content_store 	p_hit[6] 	0.030271583130934
scalar tiger_cost_network.node[6].content_store 	hits[6] 	1371
scalar tiger_cost_network.node[6].content_store 	misses[6] 	43919
scalar tiger_cost_network.node[6].content_store 	decision_yes[6] 	692
scalar tiger_cost_network.node[6].content_store 	decision_no[6] 	43227
scalar tiger_cost_network.node[6].content_store 	decision_ratio[6] 	0.015756278603793
scalar tiger_cost_network.node[6].content_store 	correction_factor[6] 	0.0027225701061802
scalar tiger_cost_network.node[6].content_store 	kappa[6] 	1
scalar tiger_cost_network.node[7].core_layer 	interests[7] 	49110
scalar tiger_cost_network.node[7].core_layer 	data[7] 	41251
scalar tiger_cost_network.node[7].content_store 	p_hit[7] 	0.16002850743229
scalar tiger_cost_network.node[7].content_store 	hits[7] 	7859
scalar tiger_cost_network.node[7].content_store 	misses[7] 	41251
scalar tiger_cost_network.node[7].content_store 	decision_yes[7] 	659
scalar tiger_cost_network.node[7].content_store 	decision_no[7] 	40592
scalar tiger_cost_network.node[7].content_store 	decision_ratio[7] 	0.015975370294053
scalar tiger_cost_network.node[7].content_store 	correction_factor[7] 	0.0027225701061802
scalar tiger_cost_network.node[7].content_store 	kappa[7] 	1
scalar tiger_cost_network.node[8].core_layer 	interests[8] 	44646
scalar tiger_cost_network.node[8].core_layer 	data[8] 	43104
scalar tiger_cost_network.node[8].content_store 	p_hit[8] 	0.034538368498858
scalar tiger_cost_network.node[8].content_store 	hits[8] 	1542
scalar tiger_cost_network.node[8].content_store 	misses[8] 	43104
scalar tiger_cost_network.node[8].content_store 	decision_yes[8] 	694
scalar tiger_cost_network.node[8].content_store 	decision_no[8] 	42410
scalar tiger_cost_network.node[8].content_store 	decision_ratio[8] 	0.016100593912398
scalar tiger_cost_network.node[8].content_store 	correction_factor[8] 	0.0027225701061802
scalar tiger_cost_network.node[8].content_store 	kappa[8] 	1
scalar tiger_cost_network.node[9].core_layer 	interests[9] 	48994
scalar tiger_cost_network.node[9].core_layer 	data[9] 	37883
scalar tiger_cost_network.node[9].content_store 	p_hit[9] 	0.226782871372
scalar tiger_cost_network.node[9].content_store 	hits[9] 	11111
scalar tiger_cost_network.node[9].content_store 	misses[9] 	37883
scalar tiger_cost_network.node[9].content_store 	decision_yes[9] 	693
scalar tiger_cost_network.node[9].content_store 	decision_no[9] 	37190
scalar tiger_cost_network.node[9].content_store 	decision_ratio[9] 	0.018293165799963
scalar tiger_cost_network.node[9].content_store 	correction_factor[9] 	0.0027225701061802
scalar tiger_cost_network.node[9].content_store 	kappa[9] 	1
scalar tiger_cost_network.node[10].core_layer 	interests[10] 	188195
scalar tiger_cost_network.node[10].core_layer 	data[10] 	180533
scalar tiger_cost_network.node[10].content_store 	p_hit[10] 	0.04041021281118
scalar tiger_cost_network.node[10].content_store 	hits[10] 	7605
scalar tiger_cost_network.node[10].content_store 	misses[10] 	180590
scalar tiger_cost_network.node[10].content_store 	decision_yes[10] 	813
scalar tiger_cost_network.node[10].content_store 	decision_no[10] 	179720
scalar tiger_cost_network.node[10].content_store 	decision_ratio[10] 	0.0045033318008342
scalar tiger_cost_network.node[10].content_store 	correction_factor[10] 	0.0027225701061802
scalar tiger_cost_network.node[10].content_store 	kappa[10] 	1
scalar tiger_cost_network.node[11].core_layer 	interests[11] 	222599
scalar tiger_cost_network.node[11].core_layer 	repo_load[11] 	207434
scalar tiger_cost_network.node[11].core_layer 	data[11] 	15165
scalar tiger_cost_network.node[11].content_store 	p_hit[11] 	0
scalar tiger_cost_network.node[11].content_store 	hits[11] 	0
scalar tiger_cost_network.node[11].content_store 	misses[11] 	222599
scalar tiger_cost_network.node[11].content_store 	decision_yes[11] 	0
scalar tiger_cost_network.node[11].content_store 	decision_no[11] 	222599
scalar tiger_cost_network.node[11].content_store 	decision_ratio[11] 	0
scalar tiger_cost_network.node[11].content_store 	correction_factor[11] 	0.0027225701061802
scalar tiger_cost_network.node[11].content_store 	kappa[11] 	1
scalar tiger_cost_network.node[12].core_layer 	interests[12] 	55294
scalar tiger_cost_network.node[12].core_layer 	data[12] 	47492
scalar tiger_cost_network.node[12].content_store 	p_hit[12] 	0.1411003002134
scalar tiger_cost_network.node[12].content_store 	hits[12] 	7802
scalar tiger_cost_network.node[12].content_store 	misses[12] 	47492
scalar tiger_cost_network.node[12].content_store 	decision_yes[12] 	58
scalar tiger_cost_network.node[12].content_store 	decision_no[12] 	47434
scalar tiger_cost_network.node[12].content_store 	decision_ratio[12] 	0.0012212583171903
scalar tiger_cost_network.node[12].content_store 	correction_factor[12] 	0.0027225701061802
scalar tiger_cost_network.node[12].content_store 	kappa[12] 	1
scalar tiger_cost_network.node[13].core_layer 	interests[13] 	91176
scalar tiger_cost_network.node[13].core_layer 	repo_load[13] 	74658
scalar tiger_cost_network.node[13].core_layer 	data[13] 	0
scalar tiger_cost_network.node[13].content_store 	p_hit[13] 	0.18116609634114
scalar tiger_cost_network.node[13].content_store 	hits[13] 	16518
scalar tiger_cost_network.node[13].content_store 	misses[13] 	74658
scalar tiger_cost_network.node[13].content_store 	decision_yes[13] 	204
scalar tiger_cost_network.node[13].content_store 	decision_no[13] 	74454
scalar tiger_cost_network.node[13].content_store 	decision_ratio[13] 	0.0027324600176806
scalar tiger_cost_network.node[13].content_store 	correction_factor[13] 	0.0027225701061802
scalar tiger_cost_network.node[13].content_store 	kappa[13] 	1
scalar tiger_cost_network.node[14].core_layer 	interests[14] 	0
scalar tiger_cost_network.node[14].core_layer 	data[14] 	0
scalar tiger_cost_network.node[14].content_store 	p_hit[14] 	-nan
scalar tiger_cost_network.node[14].content_store 	hits[14] 	0
scalar tiger_cost_network.node[14].content_store 	misses[14] 	0
scalar tiger_cost_network.node[14].content_store 	decision_yes[14] 	0
scalar tiger_cost_network.node[14].content_store 	decision_no[14] 	0
scalar tiger_cost_network.node[14].content_store 	decision_ratio[14] 	0
scalar tiger_cost_network.node[14].content_store 	correction_factor[14] 	0.0027225701061802
scalar tiger_cost_network.node[14].content_store 	kappa[14] 	1
scalar tiger_cost_network.node[15].core_layer 	interests[15] 	0
scalar tiger_cost_network.node[15].core_layer 	data[15] 	0
scalar tiger_cost_network.node[15].content_store 	p_hit[15] 	-nan
scalar tiger_cost_network.node[15].content_store 	hits[15] 	0
scalar tiger_cost_network.node[15].content_store 	misses[15] 	0
scalar tiger_cost_network.node[15].content_store 	decision_yes[15] 	0
scalar tiger_cost_network.node[15].content_store 	decision_no[15] 	0
scalar tiger_cost_network.node[15].content_store 	decision_ratio[15] 	0
scalar tiger_cost_network.node[15].content_store 	correction_factor[15] 	0.0027225701061802
scalar tiger_cost_network.node[15].content_store 	kappa[15] 	1
scalar tiger_cost_network.node[16].core_layer 	interests[16] 	0
scalar tiger_cost_network.node[16].core_layer 	data[16] 	0
scalar tiger_cost_network.node[16].content_store 	p_hit[16] 	-nan
scalar tiger_cost_network.node[16].content_store 	hits[16] 	0
scalar tiger_cost_network.node[16].content_store 	misses[16] 	0
scalar tiger_cost_network.node[16].content_store 	decision_yes[16] 	0
scalar tiger_cost_network.node[16].content_store 	decision_no[16] 	0
scalar tiger_cost_network.node[16].content_store 	decision_ratio[16] 	0
scalar tiger_cost_network.node[16].content_store 	correction_factor[16] 	0.0027225701061802
scalar tiger_cost_network.node[16].content_store 	kappa[16] 	1
scalar tiger_cost_network.node[17].core_layer 	interests[17] 	85571
scalar tiger_cost_network.node[17].core_layer 	data[17] 	85571
scalar tiger_cost_network.node[17].content_store 	p_hit[17] 	0
scalar tiger_cost_network.node[17].content_store 	hits[17] 	0
scalar tiger_cost_network.node[17].content_store 	misses[17] 	85571
scalar tiger_cost_network.node[17].content_store 	decision_yes[17] 	0
scalar tiger_cost_network.node[17].content_store 	decision_no[17] 	85571
scalar tiger_cost_network.node[17].content_store 	decision_ratio[17] 	0
scalar tiger_cost_network.node[17].content_store 	correction_factor[17] 	0.0027225701061802
scalar tiger_cost_network.node[17].content_store 	kappa[17] 	1
scalar tiger_cost_network.node[18].core_layer 	interests[18] 	88155
scalar tiger_cost_network.node[18].core_layer 	data[18] 	88155
scalar tiger_cost_network.node[18].content_store 	p_hit[18] 	0
scalar tiger_cost_network.node[18].content_store 	hits[18] 	0
scalar tiger_cost_network.node[18].content_store 	misses[18] 	88155
scalar tiger_cost_network.node[18].content_store 	decision_yes[18] 	0
scalar tiger_cost_network.node[18].content_store 	decision_no[18] 	88155
scalar tiger_cost_network.node[18].content_store 	decision_ratio[18] 	0
scalar tiger_cost_network.node[18].content_store 	correction_factor[18] 	0.0027225701061802
scalar tiger_cost_network.node[18].content_store 	kappa[18] 	1
scalar tiger_cost_network.node[19].core_layer 	interests[19] 	44677
scalar tiger_cost_network.node[19].core_layer 	data[19] 	37550
scalar tiger_cost_network.node[19].content_store 	p_hit[19] 	0.15952279696488
scalar tiger_cost_network.node[19].content_store 	hits[19] 	7127
scalar tiger_cost_network.node[19].content_store 	misses[19] 	37550
scalar tiger_cost_network.node[19].content_store 	decision_yes[19] 	672
scalar tiger_cost_network.node[19].content_store 	decision_no[19] 	36878
scalar tiger_cost_network.node[19].content_store 	decision_ratio[19] 	0.017896138482024
scalar tiger_cost_network.node[19].content_store 	correction_factor[19] 	0.0027225701061802
scalar tiger_cost_network.node[19].content_store 	kappa[19] 	1
scalar tiger_cost_network.node[20].core_layer 	interests[20] 	2584
scalar tiger_cost_network.node[20].core_layer 	data[20] 	2584
scalar tiger_cost_network.node[20].content_store 	p_hit[20] 	0
scalar tiger_cost_network.node[20].content_store 	hits[20] 	0
scalar tiger_cost_network.node[20].content_store 	misses[20] 	2584
scalar tiger_cost_network.node[20].content_store 	decision_yes[20] 	0
scalar tiger_cost_network.node[20].content_store 	decision_no[20] 	2584
scalar tiger_cost_network.node[20].content_store 	decision_ratio[20] 	0
scalar tiger_cost_network.node[20].content_store 	correction_factor[20] 	0.0027225701061802
scalar tiger_cost_network.node[20].content_store 	kappa[20] 	1
scalar tiger_cost_network.node[21].core_layer 	interests[21] 	112307
scalar tiger_cost_network.node[21].core_layer 	repo_load[21] 	76563
scalar tiger_cost_network.node[21].core_layer 	data[21] 	0
scalar tiger_cost_network.node[21].content_store 	p_hit[21] 	0.31827045509185
scalar tiger_cost_network.node[21].content_store 	hits[21] 	35744
scalar tiger_cost_network.node[21].content_store 	misses[21] 	76563
scalar tiger_cost_network.node[21].content_store 	decision_yes[21] 	2109
scalar tiger_cost_network.node[21].content_store 	decision_no[21] 	74454
scalar tiger_cost_network.node[21].content_store 	decision_ratio[21] 	0.02754594255711
scalar tiger_cost_network.node[21].content_store 	correction_factor[21] 	0.0027225701061802
scalar tiger_cost_network.node[21].content_store 	kappa[21] 	1
scalar tiger_cost_network.client[0] 	hdistance[0] 	2.3227594719927
scalar tiger_cost_network.client[0] 	downloads[0] 	179846
scalar tiger_cost_network.client[0] 	avg_time[0] 	0.000494350256
scalar tiger_cost_network.client[5] 	hdistance[5] 	4.3630560166091
scalar tiger_cost_network.client[5] 	downloads[5] 	180143
scalar tiger_cost_network.client[5] 	avg_time[5] 	0.001741164288
scalar tiger_cost_network.client[10] 	hdistance[10] 	2.5050773020632
scalar tiger_cost_network.client[10] 	downloads[10] 	179426
scalar tiger_cost_network.client[10] 	avg_time[10] 	0.000487502035
