version 2
run General-15-20140930-19:38:18-29405
attr D costaware0.01
attr F nrr
attr R lru
attr a 1
attr configname General
attr csize 1e3
attr ctlg 1e5
attr datetime 20140930-19:38:18
attr experiment General
attr inifile omnetpp.ini
attr iterationvars "$net=tiger_cost, $rep=12, $priceratiovalue=10, $weights=0.333_0.333_0.334, $lambda=100, $a=1, $ctlg=1e5, $F=nrr, $ttl=10, $D=costaware0.01, $xi=1, $R=lru, $csize=1e3, $pricebits=0, $window=60, $variance=0.05, $mytime=1800"
attr iterationvars2 "$net=tiger_cost, $rep=12, $priceratiovalue=10, $weights=0.333_0.333_0.334, $lambda=100, $a=1, $ctlg=1e5, $F=nrr, $ttl=10, $D=costaware0.01, $xi=1, $R=lru, $csize=1e3, $pricebits=0, $window=60, $variance=0.05, $mytime=1800, $repetition=0"
attr lambda 100
attr measurement "$net=tiger_cost, $rep=12, $priceratiovalue=10, $weights=0.333_0.333_0.334, $lambda=100, $a=1, $ctlg=1e5, $F=nrr, $ttl=10, $D=costaware0.01, $xi=1, $R=lru, $csize=1e3, $pricebits=0, $window=60, $variance=0.05, $mytime=1800"
attr mytime 1800
attr net tiger_cost
attr network networks.${net=tiger_cost,dtelecom_cost}_network
attr pricebits 0
attr priceratiovalue 10
attr processid 29405
attr rep 12
attr repetition 0
attr replication #0
attr resultdir results
attr runnumber 15
attr seedset 12
attr ttl 10
attr variance 0.05
attr weights 0.333_0.333_0.334
attr window 60
attr xi 1

scalar . 	a 	1
scalar . 	csize 	1e3
scalar . 	ctlg 	1e5
scalar . 	lambda 	100
scalar . 	mytime 	1800
scalar . 	pricebits 	0
scalar . 	priceratiovalue 	10
scalar . 	rep 	12
scalar . 	ttl 	10
scalar . 	variance 	0.05
scalar . 	window 	60
scalar . 	xi 	1
scalar tiger_cost_network.content_distribution 	repo-0 	15
scalar tiger_cost_network.content_distribution 	repo-1 	11
scalar tiger_cost_network.content_distribution 	repo-2 	12
scalar tiger_cost_network.content_distribution 	client-0 	21
scalar tiger_cost_network.content_distribution 	client-1 	3
scalar tiger_cost_network.content_distribution 	client-2 	10
scalar tiger_cost_network.content_distribution 	repo-0_card 	33377
scalar tiger_cost_network.content_distribution 	repo-0_price 	1
scalar tiger_cost_network.content_distribution 	repo-1_card 	33438
scalar tiger_cost_network.content_distribution 	repo-1_price 	10
scalar tiger_cost_network.content_distribution 	repo-2_card 	33185
scalar tiger_cost_network.content_distribution 	repo-2_price 	0
scalar tiger_cost_network.statistics 	repo_popularity[0] 	0.39206413854294
scalar tiger_cost_network.statistics 	repo_popularity[1] 	0.32380036391025
scalar tiger_cost_network.statistics 	repo_popularity[2] 	0.28413549754682
scalar tiger_cost_network.statistics 	stabilization_time 	36060
scalar tiger_cost_network.statistics 	p_hit 	0.11970597438579
scalar tiger_cost_network.statistics 	interests 	81637.909090909
scalar tiger_cost_network.statistics 	data 	57103
scalar tiger_cost_network.statistics 	hdistance 	2.9326838784901
scalar tiger_cost_network.statistics 	avg_time 	0.00077610007
scalar tiger_cost_network.statistics 	downloads 	539307
scalar tiger_cost_network.statistics 	total_cost 	939265
scalar tiger_cost_network.statistics 	total_replicas 	100000
scalar tiger_cost_network.statistics 	inner_hit 	0.39897868931796
scalar tiger_cost_network.node[0].core_layer 	interests[0] 	96067
scalar tiger_cost_network.node[0].core_layer 	data[0] 	92257
scalar tiger_cost_network.node[0].core_layer 	repo_int[0] 	324135
scalar tiger_cost_network.node[0].content_store 	p_hit[0] 	0.039659820750101
scalar tiger_cost_network.node[0].content_store 	hits[0] 	3810
scalar tiger_cost_network.node[0].content_store 	misses[0] 	92257
scalar tiger_cost_network.node[0].content_store 	decision_yes[0] 	707
scalar tiger_cost_network.node[0].content_store 	decision_no[0] 	91550
scalar tiger_cost_network.node[0].content_store 	decision_ratio[0] 	0.007663375136846
scalar tiger_cost_network.node[0].content_store 	correction_factor[0] 	0.0027225701061802
scalar tiger_cost_network.node[0].content_store 	kappa[0] 	1
scalar tiger_cost_network.node[1].core_layer 	interests[1] 	142962
scalar tiger_cost_network.node[1].core_layer 	data[1] 	132493
scalar tiger_cost_network.node[1].content_store 	p_hit[1] 	0.072054112281585
scalar tiger_cost_network.node[1].content_store 	hits[1] 	10301
scalar tiger_cost_network.node[1].content_store 	misses[1] 	132661
scalar tiger_cost_network.node[1].content_store 	decision_yes[1] 	152
scalar tiger_cost_network.node[1].content_store 	decision_no[1] 	132341
scalar tiger_cost_network.node[1].content_store 	decision_ratio[1] 	0.0011472304197203
scalar tiger_cost_network.node[1].content_store 	correction_factor[1] 	0.0027225701061802
scalar tiger_cost_network.node[1].content_store 	kappa[1] 	1
scalar tiger_cost_network.node[2].core_layer 	interests[2] 	242592
scalar tiger_cost_network.node[2].core_layer 	data[2] 	179392
scalar tiger_cost_network.node[2].content_store 	p_hit[2] 	0.26051972035352
scalar tiger_cost_network.node[2].content_store 	hits[2] 	63200
scalar tiger_cost_network.node[2].content_store 	misses[2] 	179392
scalar tiger_cost_network.node[2].content_store 	decision_yes[2] 	918
scalar tiger_cost_network.node[2].content_store 	decision_no[2] 	178474
scalar tiger_cost_network.node[2].content_store 	decision_ratio[2] 	0.0051172850517303
scalar tiger_cost_network.node[2].content_store 	correction_factor[2] 	0.0027225701061802
scalar tiger_cost_network.node[2].content_store 	kappa[2] 	1
scalar tiger_cost_network.node[3].core_layer 	interests[3] 	250761
scalar tiger_cost_network.node[3].core_layer 	data[3] 	242188
scalar tiger_cost_network.node[3].content_store 	p_hit[3] 	0.033657546428671
scalar tiger_cost_network.node[3].content_store 	hits[3] 	8440
scalar tiger_cost_network.node[3].content_store 	misses[3] 	242321
scalar tiger_cost_network.node[3].content_store 	decision_yes[3] 	1031
scalar tiger_cost_network.node[3].content_store 	decision_no[3] 	241157
scalar tiger_cost_network.node[3].content_store 	decision_ratio[3] 	0.0042570234693709
scalar tiger_cost_network.node[3].content_store 	correction_factor[3] 	0.0027225701061802
scalar tiger_cost_network.node[3].content_store 	kappa[3] 	1
scalar tiger_cost_network.node[4].core_layer 	interests[4] 	0
scalar tiger_cost_network.node[4].core_layer 	data[4] 	0
scalar tiger_cost_network.node[4].content_store 	p_hit[4] 	-nan
scalar tiger_cost_network.node[4].content_store 	hits[4] 	0
scalar tiger_cost_network.node[4].content_store 	misses[4] 	0
scalar tiger_cost_network.node[4].content_store 	decision_yes[4] 	0
scalar tiger_cost_network.node[4].content_store 	decision_no[4] 	0
scalar tiger_cost_network.node[4].content_store 	decision_ratio[4] 	0
scalar tiger_cost_network.node[4].content_store 	correction_factor[4] 	0.0027225701061802
scalar tiger_cost_network.node[4].content_store 	kappa[4] 	1
scalar tiger_cost_network.node[5].core_layer 	interests[5] 	0
scalar tiger_cost_network.node[5].core_layer 	data[5] 	0
scalar tiger_cost_network.node[5].content_store 	p_hit[5] 	-nan
scalar tiger_cost_network.node[5].content_store 	hits[5] 	0
scalar tiger_cost_network.node[5].content_store 	misses[5] 	0
scalar tiger_cost_network.node[5].content_store 	decision_yes[5] 	0
scalar tiger_cost_network.node[5].content_store 	decision_no[5] 	0
scalar tiger_cost_network.node[5].content_store 	decision_ratio[5] 	0
scalar tiger_cost_network.node[5].content_store 	correction_factor[5] 	0.0027225701061802
scalar tiger_cost_network.node[5].content_store 	kappa[5] 	1
scalar tiger_cost_network.node[6].core_layer 	interests[6] 	0
scalar tiger_cost_network.node[6].core_layer 	data[6] 	0
scalar tiger_cost_network.node[6].content_store 	p_hit[6] 	-nan
scalar tiger_cost_network.node[6].content_store 	hits[6] 	0
scalar tiger_cost_network.node[6].content_store 	misses[6] 	0
scalar tiger_cost_network.node[6].content_store 	decision_yes[6] 	0
scalar tiger_cost_network.node[6].content_store 	decision_no[6] 	0
scalar tiger_cost_network.node[6].content_store 	decision_ratio[6] 	0
scalar tiger_cost_network.node[6].content_store 	correction_factor[6] 	0.0027225701061802
scalar tiger_cost_network.node[6].content_store 	kappa[6] 	1
scalar tiger_cost_network.node[7].core_layer 	interests[7] 	0
scalar tiger_cost_network.node[7].core_layer 	data[7] 	0
scalar tiger_cost_network.node[7].content_store 	p_hit[7] 	-nan
scalar tiger_cost_network.node[7].content_store 	hits[7] 	0
scalar tiger_cost_network.node[7].content_store 	misses[7] 	0
scalar tiger_cost_network.node[7].content_store 	decision_yes[7] 	0
scalar tiger_cost_network.node[7].content_store 	decision_no[7] 	0
scalar tiger_cost_network.node[7].content_store 	decision_ratio[7] 	0
scalar tiger_cost_network.node[7].content_store 	correction_factor[7] 	0.0027225701061802
scalar tiger_cost_network.node[7].content_store 	kappa[7] 	1
scalar tiger_cost_network.node[8].core_layer 	interests[8] 	84484
scalar tiger_cost_network.node[8].core_layer 	data[8] 	65392
scalar tiger_cost_network.node[8].content_store 	p_hit[8] 	0.2259836181999
scalar tiger_cost_network.node[8].content_store 	hits[8] 	19092
scalar tiger_cost_network.node[8].content_store 	misses[8] 	65392
scalar tiger_cost_network.node[8].content_store 	decision_yes[8] 	64
scalar tiger_cost_network.node[8].content_store 	decision_no[8] 	65328
scalar tiger_cost_network.node[8].content_store 	decision_ratio[8] 	0.00097871299241497
scalar tiger_cost_network.node[8].content_store 	correction_factor[8] 	0.0027225701061802
scalar tiger_cost_network.node[8].content_store 	kappa[8] 	1
scalar tiger_cost_network.node[9].core_layer 	interests[9] 	13504
scalar tiger_cost_network.node[9].core_layer 	data[9] 	13504
scalar tiger_cost_network.node[9].content_store 	p_hit[9] 	0
scalar tiger_cost_network.node[9].content_store 	hits[9] 	0
scalar tiger_cost_network.node[9].content_store 	misses[9] 	13504
scalar tiger_cost_network.node[9].content_store 	decision_yes[9] 	0
scalar tiger_cost_network.node[9].content_store 	decision_no[9] 	13504
scalar tiger_cost_network.node[9].content_store 	decision_ratio[9] 	0
scalar tiger_cost_network.node[9].content_store 	correction_factor[9] 	0.0027225701061802
scalar tiger_cost_network.node[9].content_store 	kappa[9] 	1
scalar tiger_cost_network.node[10].core_layer 	interests[10] 	190161
scalar tiger_cost_network.node[10].core_layer 	data[10] 	174156
scalar tiger_cost_network.node[10].content_store 	p_hit[10] 	0.083408269834509
scalar tiger_cost_network.node[10].content_store 	hits[10] 	15861
scalar tiger_cost_network.node[10].content_store 	misses[10] 	174300
scalar tiger_cost_network.node[10].content_store 	decision_yes[10] 	906
scalar tiger_cost_network.node[10].content_store 	decision_no[10] 	173250
scalar tiger_cost_network.node[10].content_store 	decision_ratio[10] 	0.0052022324812237
scalar tiger_cost_network.node[10].content_store 	correction_factor[10] 	0.0027225701061802
scalar tiger_cost_network.node[10].content_store 	kappa[10] 	1
scalar tiger_cost_network.node[11].core_layer 	interests[11] 	175119
scalar tiger_cost_network.node[11].core_layer 	repo_load[11] 	85378
scalar tiger_cost_network.node[11].core_layer 	data[11] 	51393
scalar tiger_cost_network.node[11].content_store 	p_hit[11] 	0.21898252045752
scalar tiger_cost_network.node[11].content_store 	hits[11] 	38348
scalar tiger_cost_network.node[11].content_store 	misses[11] 	136771
scalar tiger_cost_network.node[11].content_store 	decision_yes[11] 	2277
scalar tiger_cost_network.node[11].content_store 	decision_no[11] 	134494
scalar tiger_cost_network.node[11].content_store 	decision_ratio[11] 	0.016648266079798
scalar tiger_cost_network.node[11].content_store 	correction_factor[11] 	0.0027225701061802
scalar tiger_cost_network.node[11].content_store 	kappa[11] 	1
scalar tiger_cost_network.node[12].core_layer 	interests[12] 	197835
scalar tiger_cost_network.node[12].core_layer 	repo_load[12] 	153272
scalar tiger_cost_network.node[12].core_layer 	data[12] 	41791
scalar tiger_cost_network.node[12].content_store 	p_hit[12] 	0.014011676396997
scalar tiger_cost_network.node[12].content_store 	hits[12] 	2772
scalar tiger_cost_network.node[12].content_store 	misses[12] 	195063
scalar tiger_cost_network.node[12].content_store 	decision_yes[12] 	753
scalar tiger_cost_network.node[12].content_store 	decision_no[12] 	194310
scalar tiger_cost_network.node[12].content_store 	decision_ratio[12] 	0.0038602912905061
scalar tiger_cost_network.node[12].content_store 	correction_factor[12] 	0.0027225701061802
scalar tiger_cost_network.node[12].content_store 	kappa[12] 	1
scalar tiger_cost_network.node[13].core_layer 	interests[13] 	0
scalar tiger_cost_network.node[13].core_layer 	data[13] 	0
scalar tiger_cost_network.node[13].content_store 	p_hit[13] 	-nan
scalar tiger_cost_network.node[13].content_store 	hits[13] 	0
scalar tiger_cost_network.node[13].content_store 	misses[13] 	0
scalar tiger_cost_network.node[13].content_store 	decision_yes[13] 	0
scalar tiger_cost_network.node[13].content_store 	decision_no[13] 	0
scalar tiger_cost_network.node[13].content_store 	decision_ratio[13] 	0
scalar tiger_cost_network.node[13].content_store 	correction_factor[13] 	0.0027225701061802
scalar tiger_cost_network.node[13].content_store 	kappa[13] 	1
scalar tiger_cost_network.node[14].core_layer 	interests[14] 	0
scalar tiger_cost_network.node[14].core_layer 	data[14] 	0
scalar tiger_cost_network.node[14].content_store 	p_hit[14] 	-nan
scalar tiger_cost_network.node[14].content_store 	hits[14] 	0
scalar tiger_cost_network.node[14].content_store 	misses[14] 	0
scalar tiger_cost_network.node[14].content_store 	decision_yes[14] 	0
scalar tiger_cost_network.node[14].content_store 	decision_no[14] 	0
scalar tiger_cost_network.node[14].content_store 	decision_ratio[14] 	0
scalar tiger_cost_network.node[14].content_store 	correction_factor[14] 	0.0027225701061802
scalar tiger_cost_network.node[14].content_store 	kappa[14] 	1
scalar tiger_cost_network.node[15].core_layer 	interests[15] 	112131
scalar tiger_cost_network.node[15].core_layer 	repo_load[15] 	85485
scalar tiger_cost_network.node[15].core_layer 	data[15] 	0
scalar tiger_cost_network.node[15].content_store 	p_hit[15] 	0.23763276881505
scalar tiger_cost_network.node[15].content_store 	hits[15] 	26646
scalar tiger_cost_network.node[15].content_store 	misses[15] 	85485
scalar tiger_cost_network.node[15].content_store 	decision_yes[15] 	209
scalar tiger_cost_network.node[15].content_store 	decision_no[15] 	85276
scalar tiger_cost_network.node[15].content_store 	decision_ratio[15] 	0.002444873369597
scalar tiger_cost_network.node[15].content_store 	correction_factor[15] 	0.0027225701061802
scalar tiger_cost_network.node[15].content_store 	kappa[15] 	1
scalar tiger_cost_network.node[16].core_layer 	interests[16] 	0
scalar tiger_cost_network.node[16].core_layer 	data[16] 	0
scalar tiger_cost_network.node[16].content_store 	p_hit[16] 	-nan
scalar tiger_cost_network.node[16].content_store 	hits[16] 	0
scalar tiger_cost_network.node[16].content_store 	misses[16] 	0
scalar tiger_cost_network.node[16].content_store 	decision_yes[16] 	0
scalar tiger_cost_network.node[16].content_store 	decision_no[16] 	0
scalar tiger_cost_network.node[16].content_store 	decision_ratio[16] 	0
scalar tiger_cost_network.node[16].content_store 	correction_factor[16] 	0.0027225701061802
scalar tiger_cost_network.node[16].content_store 	kappa[16] 	1
scalar tiger_cost_network.node[17].core_layer 	interests[17] 	0
scalar tiger_cost_network.node[17].core_layer 	data[17] 	0
scalar tiger_cost_network.node[17].content_store 	p_hit[17] 	-nan
scalar tiger_cost_network.node[17].content_store 	hits[17] 	0
scalar tiger_cost_network.node[17].content_store 	misses[17] 	0
scalar tiger_cost_network.node[17].content_store 	decision_yes[17] 	0
scalar tiger_cost_network.node[17].content_store 	decision_no[17] 	0
scalar tiger_cost_network.node[17].content_store 	decision_ratio[17] 	0
scalar tiger_cost_network.node[17].content_store 	correction_factor[17] 	0.0027225701061802
scalar tiger_cost_network.node[17].content_store 	kappa[17] 	1
scalar tiger_cost_network.node[18].core_layer 	interests[18] 	0
scalar tiger_cost_network.node[18].core_layer 	data[18] 	0
scalar tiger_cost_network.node[18].content_store 	p_hit[18] 	-nan
scalar tiger_cost_network.node[18].content_store 	hits[18] 	0
scalar tiger_cost_network.node[18].content_store 	misses[18] 	0
scalar tiger_cost_network.node[18].content_store 	decision_yes[18] 	0
scalar tiger_cost_network.node[18].content_store 	decision_no[18] 	0
scalar tiger_cost_network.node[18].content_store 	decision_ratio[18] 	0
scalar tiger_cost_network.node[18].content_store 	correction_factor[18] 	0.0027225701061802
scalar tiger_cost_network.node[18].content_store 	kappa[18] 	1
scalar tiger_cost_network.node[19].core_layer 	interests[19] 	97101
scalar tiger_cost_network.node[19].core_layer 	data[19] 	93473
scalar tiger_cost_network.node[19].content_store 	p_hit[19] 	0.03736315794894
scalar tiger_cost_network.node[19].content_store 	hits[19] 	3628
scalar tiger_cost_network.node[19].content_store 	misses[19] 	93473
scalar tiger_cost_network.node[19].content_store 	decision_yes[19] 	770
scalar tiger_cost_network.node[19].content_store 	decision_no[19] 	92703
scalar tiger_cost_network.node[19].content_store 	decision_ratio[19] 	0.0082376729108941
scalar tiger_cost_network.node[19].content_store 	correction_factor[19] 	0.0027225701061802
scalar tiger_cost_network.node[19].content_store 	kappa[19] 	1
scalar tiger_cost_network.node[20].core_layer 	interests[20] 	0
scalar tiger_cost_network.node[20].core_layer 	data[20] 	0
scalar tiger_cost_network.node[20].content_store 	p_hit[20] 	-nan
scalar tiger_cost_network.node[20].content_store 	hits[20] 	0
scalar tiger_cost_network.node[20].content_store 	misses[20] 	0
scalar tiger_cost_network.node[20].content_store 	decision_yes[20] 	0
scalar tiger_cost_network.node[20].content_store 	decision_no[20] 	0
scalar tiger_cost_network.node[20].content_store 	decision_ratio[20] 	0
scalar tiger_cost_network.node[20].content_store 	correction_factor[20] 	0.0027225701061802
scalar tiger_cost_network.node[20].content_store 	kappa[20] 	1
scalar tiger_cost_network.node[21].core_layer 	interests[21] 	193317
scalar tiger_cost_network.node[21].core_layer 	data[21] 	170227
scalar tiger_cost_network.node[21].content_store 	p_hit[21] 	0.11844793784302
scalar tiger_cost_network.node[21].content_store 	hits[21] 	22898
scalar tiger_cost_network.node[21].content_store 	misses[21] 	170419
scalar tiger_cost_network.node[21].content_store 	decision_yes[21] 	804
scalar tiger_cost_network.node[21].content_store 	decision_no[21] 	169423
scalar tiger_cost_network.node[21].content_store 	decision_ratio[21] 	0.0047231050303418
scalar tiger_cost_network.node[21].content_store 	correction_factor[21] 	0.0027225701061802
scalar tiger_cost_network.node[21].content_store 	kappa[21] 	1
scalar tiger_cost_network.client[3] 	hdistance[3] 	2.5004109376041
scalar tiger_cost_network.client[3] 	downloads[3] 	180076
scalar tiger_cost_network.client[3] 	avg_time[3] 	0.000814849342
scalar tiger_cost_network.client[10] 	hdistance[10] 	2.6551970650824
scalar tiger_cost_network.client[10] 	downloads[10] 	180448
scalar tiger_cost_network.client[10] 	avg_time[10] 	0.000531405852
scalar tiger_cost_network.client[21] 	hdistance[21] 	3.6424436327839
scalar tiger_cost_network.client[21] 	downloads[21] 	178783
scalar tiger_cost_network.client[21] 	avg_time[21] 	0.000982045018
