version 2
run General-9-20140930-15:59:10-21820
attr D costaware0.01
attr F nrr
attr R lru
attr a 1
attr configname General
attr csize 1e3
attr ctlg 1e5
attr datetime 20140930-15:59:10
attr experiment General
attr inifile omnetpp.ini
attr iterationvars "$net=tiger_cost, $rep=15, $priceratiovalue=10, $weights=0.333_0.333_0.334, $lambda=100, $a=1, $ctlg=1e5, $F=nrr, $ttl=10, $D=costaware0.01, $xi=1, $R=lru, $csize=1e3, $pricebits=0, $window=60, $variance=0.05, $mytime=1800"
attr iterationvars2 "$net=tiger_cost, $rep=15, $priceratiovalue=10, $weights=0.333_0.333_0.334, $lambda=100, $a=1, $ctlg=1e5, $F=nrr, $ttl=10, $D=costaware0.01, $xi=1, $R=lru, $csize=1e3, $pricebits=0, $window=60, $variance=0.05, $mytime=1800, $repetition=0"
attr lambda 100
attr measurement "$net=tiger_cost, $rep=15, $priceratiovalue=10, $weights=0.333_0.333_0.334, $lambda=100, $a=1, $ctlg=1e5, $F=nrr, $ttl=10, $D=costaware0.01, $xi=1, $R=lru, $csize=1e3, $pricebits=0, $window=60, $variance=0.05, $mytime=1800"
attr mytime 1800
attr net tiger_cost
attr network networks.${net=level3_cost,tiger_cost,dtelecom_cost}_network
attr pricebits 0
attr priceratiovalue 10
attr processid 21820
attr rep 15
attr repetition 0
attr replication #0
attr resultdir results
attr runnumber 9
attr seedset 15
attr ttl 10
attr variance 0.05
attr weights 0.333_0.333_0.334
attr window 60
attr xi 1

scalar . 	a 	1
scalar . 	csize 	1e3
scalar . 	ctlg 	1e5
scalar . 	lambda 	100
scalar . 	mytime 	1800
scalar . 	pricebits 	0
scalar . 	priceratiovalue 	10
scalar . 	rep 	15
scalar . 	ttl 	10
scalar . 	variance 	0.05
scalar . 	window 	60
scalar . 	xi 	1
scalar tiger_cost_network.content_distribution 	repo-0 	5
scalar tiger_cost_network.content_distribution 	repo-1 	8
scalar tiger_cost_network.content_distribution 	repo-2 	20
scalar tiger_cost_network.content_distribution 	client-0 	19
scalar tiger_cost_network.content_distribution 	client-1 	18
scalar tiger_cost_network.content_distribution 	client-2 	11
scalar tiger_cost_network.content_distribution 	repo-0_card 	33352
scalar tiger_cost_network.content_distribution 	repo-0_price 	1
scalar tiger_cost_network.content_distribution 	repo-1_card 	33287
scalar tiger_cost_network.content_distribution 	repo-1_price 	0
scalar tiger_cost_network.content_distribution 	repo-2_card 	33361
scalar tiger_cost_network.content_distribution 	repo-2_price 	10
scalar tiger_cost_network.statistics 	repo_popularity[0] 	0.39661812235512
scalar tiger_cost_network.statistics 	repo_popularity[1] 	0.26899614044563
scalar tiger_cost_network.statistics 	repo_popularity[2] 	0.33438573719926
scalar tiger_cost_network.statistics 	stabilization_time 	36060
scalar tiger_cost_network.statistics 	p_hit 	0.12923550834365
scalar tiger_cost_network.statistics 	interests 	76996.5
scalar tiger_cost_network.statistics 	data 	52476.227272727
scalar tiger_cost_network.statistics 	hdistance 	2.7348343959638
scalar tiger_cost_network.statistics 	avg_time 	0.000469347844
scalar tiger_cost_network.statistics 	downloads 	539275
scalar tiger_cost_network.statistics 	total_cost 	950294
scalar tiger_cost_network.statistics 	total_replicas 	100000
scalar tiger_cost_network.statistics 	inner_hit 	0.40599323165361
scalar tiger_cost_network.node[0].core_layer 	interests[0] 	148160
scalar tiger_cost_network.node[0].core_layer 	data[0] 	135440
scalar tiger_cost_network.node[0].core_layer 	repo_int[0] 	320333
scalar tiger_cost_network.node[0].content_store 	p_hit[0] 	0.085805885529158
scalar tiger_cost_network.node[0].content_store 	hits[0] 	12713
scalar tiger_cost_network.node[0].content_store 	misses[0] 	135447
scalar tiger_cost_network.node[0].content_store 	decision_yes[0] 	852
scalar tiger_cost_network.node[0].content_store 	decision_no[0] 	134588
scalar tiger_cost_network.node[0].content_store 	decision_ratio[0] 	0.0062906083874778
scalar tiger_cost_network.node[0].content_store 	correction_factor[0] 	0.0027225701061802
scalar tiger_cost_network.node[0].content_store 	kappa[0] 	1
scalar tiger_cost_network.node[1].core_layer 	interests[1] 	48639
scalar tiger_cost_network.node[1].core_layer 	data[1] 	48639
scalar tiger_cost_network.node[1].content_store 	p_hit[1] 	0
scalar tiger_cost_network.node[1].content_store 	hits[1] 	0
scalar tiger_cost_network.node[1].content_store 	misses[1] 	48639
scalar tiger_cost_network.node[1].content_store 	decision_yes[1] 	0
scalar tiger_cost_network.node[1].content_store 	decision_no[1] 	48639
scalar tiger_cost_network.node[1].content_store 	decision_ratio[1] 	0
scalar tiger_cost_network.node[1].content_store 	correction_factor[1] 	0.0027225701061802
scalar tiger_cost_network.node[1].content_store 	kappa[1] 	1
scalar tiger_cost_network.node[2].core_layer 	interests[2] 	0
scalar tiger_cost_network.node[2].core_layer 	data[2] 	0
scalar tiger_cost_network.node[2].content_store 	p_hit[2] 	-nan
scalar tiger_cost_network.node[2].content_store 	hits[2] 	0
scalar tiger_cost_network.node[2].content_store 	misses[2] 	0
scalar tiger_cost_network.node[2].content_store 	decision_yes[2] 	0
scalar tiger_cost_network.node[2].content_store 	decision_no[2] 	0
scalar tiger_cost_network.node[2].content_store 	decision_ratio[2] 	0
scalar tiger_cost_network.node[2].content_store 	correction_factor[2] 	0.0027225701061802
scalar tiger_cost_network.node[2].content_store 	kappa[2] 	1
scalar tiger_cost_network.node[3].core_layer 	interests[3] 	0
scalar tiger_cost_network.node[3].core_layer 	data[3] 	0
scalar tiger_cost_network.node[3].content_store 	p_hit[3] 	-nan
scalar tiger_cost_network.node[3].content_store 	hits[3] 	0
scalar tiger_cost_network.node[3].content_store 	misses[3] 	0
scalar tiger_cost_network.node[3].content_store 	decision_yes[3] 	0
scalar tiger_cost_network.node[3].content_store 	decision_no[3] 	0
scalar tiger_cost_network.node[3].content_store 	decision_ratio[3] 	0
scalar tiger_cost_network.node[3].content_store 	correction_factor[3] 	0.0027225701061802
scalar tiger_cost_network.node[3].content_store 	kappa[3] 	1
scalar tiger_cost_network.node[4].core_layer 	interests[4] 	0
scalar tiger_cost_network.node[4].core_layer 	data[4] 	0
scalar tiger_cost_network.node[4].content_store 	p_hit[4] 	-nan
scalar tiger_cost_network.node[4].content_store 	hits[4] 	0
scalar tiger_cost_network.node[4].content_store 	misses[4] 	0
scalar tiger_cost_network.node[4].content_store 	decision_yes[4] 	0
scalar tiger_cost_network.node[4].content_store 	decision_no[4] 	0
scalar tiger_cost_network.node[4].content_store 	decision_ratio[4] 	0
scalar tiger_cost_network.node[4].content_store 	correction_factor[4] 	0.0027225701061802
scalar tiger_cost_network.node[4].content_store 	kappa[4] 	1
scalar tiger_cost_network.node[5].core_layer 	interests[5] 	108042
scalar tiger_cost_network.node[5].core_layer 	repo_load[5] 	88704
scalar tiger_cost_network.node[5].core_layer 	data[5] 	0
scalar tiger_cost_network.node[5].content_store 	p_hit[5] 	0.17898594990837
scalar tiger_cost_network.node[5].content_store 	hits[5] 	19338
scalar tiger_cost_network.node[5].content_store 	misses[5] 	88704
scalar tiger_cost_network.node[5].content_store 	decision_yes[5] 	257
scalar tiger_cost_network.node[5].content_store 	decision_no[5] 	88447
scalar tiger_cost_network.node[5].content_store 	decision_ratio[5] 	0.0028972763347763
scalar tiger_cost_network.node[5].content_store 	correction_factor[5] 	0.0027225701061802
scalar tiger_cost_network.node[5].content_store 	kappa[5] 	1
scalar tiger_cost_network.node[6].core_layer 	interests[6] 	0
scalar tiger_cost_network.node[6].core_layer 	data[6] 	0
scalar tiger_cost_network.node[6].content_store 	p_hit[6] 	-nan
scalar tiger_cost_network.node[6].content_store 	hits[6] 	0
scalar tiger_cost_network.node[6].content_store 	misses[6] 	0
scalar tiger_cost_network.node[6].content_store 	decision_yes[6] 	0
scalar tiger_cost_network.node[6].content_store 	decision_no[6] 	0
scalar tiger_cost_network.node[6].content_store 	decision_ratio[6] 	0
scalar tiger_cost_network.node[6].content_store 	correction_factor[6] 	0.0027225701061802
scalar tiger_cost_network.node[6].content_store 	kappa[6] 	1
scalar tiger_cost_network.node[7].core_layer 	interests[7] 	48431
scalar tiger_cost_network.node[7].core_layer 	data[7] 	48431
scalar tiger_cost_network.node[7].content_store 	p_hit[7] 	0
scalar tiger_cost_network.node[7].content_store 	hits[7] 	0
scalar tiger_cost_network.node[7].content_store 	misses[7] 	48431
scalar tiger_cost_network.node[7].content_store 	decision_yes[7] 	0
scalar tiger_cost_network.node[7].content_store 	decision_no[7] 	48431
scalar tiger_cost_network.node[7].content_store 	decision_ratio[7] 	0
scalar tiger_cost_network.node[7].content_store 	correction_factor[7] 	0.0027225701061802
scalar tiger_cost_network.node[7].content_store 	kappa[7] 	1
scalar tiger_cost_network.node[8].core_layer 	interests[8] 	145470
scalar tiger_cost_network.node[8].core_layer 	repo_load[8] 	145470
scalar tiger_cost_network.node[8].core_layer 	data[8] 	0
scalar tiger_cost_network.node[8].content_store 	p_hit[8] 	0
scalar tiger_cost_network.node[8].content_store 	hits[8] 	0
scalar tiger_cost_network.node[8].content_store 	misses[8] 	145470
scalar tiger_cost_network.node[8].content_store 	decision_yes[8] 	0
scalar tiger_cost_network.node[8].content_store 	decision_no[8] 	145470
scalar tiger_cost_network.node[8].content_store 	decision_ratio[8] 	0
scalar tiger_cost_network.node[8].content_store 	correction_factor[8] 	0.0027225701061802
scalar tiger_cost_network.node[8].content_store 	kappa[8] 	1
scalar tiger_cost_network.node[9].core_layer 	interests[9] 	0
scalar tiger_cost_network.node[9].core_layer 	data[9] 	0
scalar tiger_cost_network.node[9].content_store 	p_hit[9] 	-nan
scalar tiger_cost_network.node[9].content_store 	hits[9] 	0
scalar tiger_cost_network.node[9].content_store 	misses[9] 	0
scalar tiger_cost_network.node[9].content_store 	decision_yes[9] 	0
scalar tiger_cost_network.node[9].content_store 	decision_no[9] 	0
scalar tiger_cost_network.node[9].content_store 	decision_ratio[9] 	0
scalar tiger_cost_network.node[9].content_store 	correction_factor[9] 	0.0027225701061802
scalar tiger_cost_network.node[9].content_store 	kappa[9] 	1
scalar tiger_cost_network.node[10].core_layer 	interests[10] 	48639
scalar tiger_cost_network.node[10].core_layer 	data[10] 	48639
scalar tiger_cost_network.node[10].content_store 	p_hit[10] 	0
scalar tiger_cost_network.node[10].content_store 	hits[10] 	0
scalar tiger_cost_network.node[10].content_store 	misses[10] 	48639
scalar tiger_cost_network.node[10].content_store 	decision_yes[10] 	0
scalar tiger_cost_network.node[10].content_store 	decision_no[10] 	48639
scalar tiger_cost_network.node[10].content_store 	decision_ratio[10] 	0
scalar tiger_cost_network.node[10].content_store 	correction_factor[10] 	0.0027225701061802
scalar tiger_cost_network.node[10].content_store 	kappa[10] 	1
scalar tiger_cost_network.node[11].core_layer 	interests[11] 	197221
scalar tiger_cost_network.node[11].core_layer 	data[11] 	171080
scalar tiger_cost_network.node[11].content_store 	p_hit[11] 	0.13189264834881
scalar tiger_cost_network.node[11].content_store 	hits[11] 	26012
scalar tiger_cost_network.node[11].content_store 	misses[11] 	171209
scalar tiger_cost_network.node[11].content_store 	decision_yes[11] 	865
scalar tiger_cost_network.node[11].content_store 	decision_no[11] 	170215
scalar tiger_cost_network.node[11].content_store 	decision_ratio[11] 	0.0050561140986673
scalar tiger_cost_network.node[11].content_store 	correction_factor[11] 	0.0027225701061802
scalar tiger_cost_network.node[11].content_store 	kappa[11] 	1
scalar tiger_cost_network.node[12].core_layer 	interests[12] 	0
scalar tiger_cost_network.node[12].core_layer 	data[12] 	0
scalar tiger_cost_network.node[12].content_store 	p_hit[12] 	-nan
scalar tiger_cost_network.node[12].content_store 	hits[12] 	0
scalar tiger_cost_network.node[12].content_store 	misses[12] 	0
scalar tiger_cost_network.node[12].content_store 	decision_yes[12] 	0
scalar tiger_cost_network.node[12].content_store 	decision_no[12] 	0
scalar tiger_cost_network.node[12].content_store 	decision_ratio[12] 	0
scalar tiger_cost_network.node[12].content_store 	correction_factor[12] 	0.0027225701061802
scalar tiger_cost_network.node[12].content_store 	kappa[12] 	1
scalar tiger_cost_network.node[13].core_layer 	interests[13] 	0
scalar tiger_cost_network.node[13].core_layer 	data[13] 	0
scalar tiger_cost_network.node[13].content_store 	p_hit[13] 	-nan
scalar tiger_cost_network.node[13].content_store 	hits[13] 	0
scalar tiger_cost_network.node[13].content_store 	misses[13] 	0
scalar tiger_cost_network.node[13].content_store 	decision_yes[13] 	0
scalar tiger_cost_network.node[13].content_store 	decision_no[13] 	0
scalar tiger_cost_network.node[13].content_store 	decision_ratio[13] 	0
scalar tiger_cost_network.node[13].content_store 	correction_factor[13] 	0.0027225701061802
scalar tiger_cost_network.node[13].content_store 	kappa[13] 	1
scalar tiger_cost_network.node[14].core_layer 	interests[14] 	0
scalar tiger_cost_network.node[14].core_layer 	data[14] 	0
scalar tiger_cost_network.node[14].content_store 	p_hit[14] 	-nan
scalar tiger_cost_network.node[14].content_store 	hits[14] 	0
scalar tiger_cost_network.node[14].content_store 	misses[14] 	0
scalar tiger_cost_network.node[14].content_store 	decision_yes[14] 	0
scalar tiger_cost_network.node[14].content_store 	decision_no[14] 	0
scalar tiger_cost_network.node[14].content_store 	decision_ratio[14] 	0
scalar tiger_cost_network.node[14].content_store 	correction_factor[14] 	0.0027225701061802
scalar tiger_cost_network.node[14].content_store 	kappa[14] 	1
scalar tiger_cost_network.node[15].core_layer 	interests[15] 	0
scalar tiger_cost_network.node[15].core_layer 	data[15] 	0
scalar tiger_cost_network.node[15].content_store 	p_hit[15] 	-nan
scalar tiger_cost_network.node[15].content_store 	hits[15] 	0
scalar tiger_cost_network.node[15].content_store 	misses[15] 	0
scalar tiger_cost_network.node[15].content_store 	decision_yes[15] 	0
scalar tiger_cost_network.node[15].content_store 	decision_no[15] 	0
scalar tiger_cost_network.node[15].content_store 	decision_ratio[15] 	0
scalar tiger_cost_network.node[15].content_store 	correction_factor[15] 	0.0027225701061802
scalar tiger_cost_network.node[15].content_store 	kappa[15] 	1
scalar tiger_cost_network.node[16].core_layer 	interests[16] 	0
scalar tiger_cost_network.node[16].core_layer 	data[16] 	0
scalar tiger_cost_network.node[16].content_store 	p_hit[16] 	-nan
scalar tiger_cost_network.node[16].content_store 	hits[16] 	0
scalar tiger_cost_network.node[16].content_store 	misses[16] 	0
scalar tiger_cost_network.node[16].content_store 	decision_yes[16] 	0
scalar tiger_cost_network.node[16].content_store 	decision_no[16] 	0
scalar tiger_cost_network.node[16].content_store 	decision_ratio[16] 	0
scalar tiger_cost_network.node[16].content_store 	correction_factor[16] 	0.0027225701061802
scalar tiger_cost_network.node[16].content_store 	kappa[16] 	1
scalar tiger_cost_network.node[17].core_layer 	interests[17] 	173524
scalar tiger_cost_network.node[17].core_layer 	data[17] 	108042
scalar tiger_cost_network.node[17].content_store 	p_hit[17] 	0.37736566699707
scalar tiger_cost_network.node[17].content_store 	hits[17] 	65482
scalar tiger_cost_network.node[17].content_store 	misses[17] 	108042
scalar tiger_cost_network.node[17].content_store 	decision_yes[17] 	229
scalar tiger_cost_network.node[17].content_store 	decision_no[17] 	107813
scalar tiger_cost_network.node[17].content_store 	decision_ratio[17] 	0.0021195461024416
scalar tiger_cost_network.node[17].content_store 	correction_factor[17] 	0.0027225701061802
scalar tiger_cost_network.node[17].content_store 	kappa[17] 	1
scalar tiger_cost_network.node[18].core_layer 	interests[18] 	355674
scalar tiger_cost_network.node[18].core_layer 	data[18] 	327524
scalar tiger_cost_network.node[18].content_store 	p_hit[18] 	0.079024612425986
scalar tiger_cost_network.node[18].content_store 	hits[18] 	28107
scalar tiger_cost_network.node[18].content_store 	misses[18] 	327567
scalar tiger_cost_network.node[18].content_store 	decision_yes[18] 	1836
scalar tiger_cost_network.node[18].content_store 	decision_no[18] 	325688
scalar tiger_cost_network.node[18].content_store 	decision_ratio[18] 	0.0056056960711276
scalar tiger_cost_network.node[18].content_store 	correction_factor[18] 	0.0027225701061802
scalar tiger_cost_network.node[18].content_store 	kappa[18] 	1
scalar tiger_cost_network.node[19].core_layer 	interests[19] 	198499
scalar tiger_cost_network.node[19].core_layer 	data[19] 	169851
scalar tiger_cost_network.node[19].content_store 	p_hit[19] 	0.14422742683842
scalar tiger_cost_network.node[19].content_store 	hits[19] 	28629
scalar tiger_cost_network.node[19].content_store 	misses[19] 	169870
scalar tiger_cost_network.node[19].content_store 	decision_yes[19] 	824
scalar tiger_cost_network.node[19].content_store 	decision_no[19] 	169027
scalar tiger_cost_network.node[19].content_store 	decision_ratio[19] 	0.004851310854808
scalar tiger_cost_network.node[19].content_store 	correction_factor[19] 	0.0027225701061802
scalar tiger_cost_network.node[19].content_store 	kappa[19] 	1
scalar tiger_cost_network.node[20].core_layer 	interests[20] 	173224
scalar tiger_cost_network.node[20].core_layer 	repo_load[20] 	86159
scalar tiger_cost_network.node[20].core_layer 	data[20] 	48431
scalar tiger_cost_network.node[20].content_store 	p_hit[20] 	0.22302914145846
scalar tiger_cost_network.node[20].content_store 	hits[20] 	38634
scalar tiger_cost_network.node[20].content_store 	misses[20] 	134590
scalar tiger_cost_network.node[20].content_store 	decision_yes[20] 	2326
scalar tiger_cost_network.node[20].content_store 	decision_no[20] 	132264
scalar tiger_cost_network.node[20].content_store 	decision_ratio[20] 	0.017282116056171
scalar tiger_cost_network.node[20].content_store 	correction_factor[20] 	0.0027225701061802
scalar tiger_cost_network.node[20].content_store 	kappa[20] 	1
scalar tiger_cost_network.node[21].core_layer 	interests[21] 	48400
scalar tiger_cost_network.node[21].core_layer 	data[21] 	48400
scalar tiger_cost_network.node[21].content_store 	p_hit[21] 	0
scalar tiger_cost_network.node[21].content_store 	hits[21] 	0
scalar tiger_cost_network.node[21].content_store 	misses[21] 	48400
scalar tiger_cost_network.node[21].content_store 	decision_yes[21] 	0
scalar tiger_cost_network.node[21].content_store 	decision_no[21] 	48400
scalar tiger_cost_network.node[21].content_store 	decision_ratio[21] 	0
scalar tiger_cost_network.node[21].content_store 	correction_factor[21] 	0.0027225701061802
scalar tiger_cost_network.node[21].content_store 	kappa[21] 	1
scalar tiger_cost_network.client[11] 	hdistance[11] 	3.495121978352
scalar tiger_cost_network.client[11] 	downloads[11] 	179786
scalar tiger_cost_network.client[11] 	avg_time[11] 	0.000733301968
scalar tiger_cost_network.client[18] 	hdistance[18] 	2.331093202406
scalar tiger_cost_network.client[18] 	downloads[18] 	180049
scalar tiger_cost_network.client[18] 	avg_time[18] 	0.000417176028
scalar tiger_cost_network.client[19] 	hdistance[19] 	2.3782880071333
scalar tiger_cost_network.client[19] 	downloads[19] 	179440
scalar tiger_cost_network.client[19] 	avg_time[19] 	0.000257565538
