version 2
run General-19-20141007-11:02:37-8410
attr D fix0.001
attr F nrr
attr R lru
attr a 1
attr configname General
attr csize 1e3
attr ctlg 1e5
attr datetime 20141007-11:02:37
attr experiment General
attr inifile omnetpp.ini
attr iterationvars "$net=abilene_cost, $rep=1, $priceratiovalue=10, $weights=0.333_0.333_0.334, $lambda=100, $a=1, $ctlg=1e5, $F=nrr, $ttl=10, $D=fix0.001, $xi=1, $R=lru, $csize=1e3, $pricebits=0, $window=60, $variance=0.05, $mytime=1800"
attr iterationvars2 "$net=abilene_cost, $rep=1, $priceratiovalue=10, $weights=0.333_0.333_0.334, $lambda=100, $a=1, $ctlg=1e5, $F=nrr, $ttl=10, $D=fix0.001, $xi=1, $R=lru, $csize=1e3, $pricebits=0, $window=60, $variance=0.05, $mytime=1800, $repetition=0"
attr lambda 100
attr measurement "$net=abilene_cost, $rep=1, $priceratiovalue=10, $weights=0.333_0.333_0.334, $lambda=100, $a=1, $ctlg=1e5, $F=nrr, $ttl=10, $D=fix0.001, $xi=1, $R=lru, $csize=1e3, $pricebits=0, $window=60, $variance=0.05, $mytime=1800"
attr mytime 1800
attr net abilene_cost
attr network networks.${net=abilene_cost,geant_cost}_network
attr pricebits 0
attr priceratiovalue 10
attr processid 8410
attr rep 1
attr repetition 0
attr replication #0
attr resultdir results
attr runnumber 19
attr seedset 1
attr ttl 10
attr variance 0.05
attr weights 0.333_0.333_0.334
attr window 60
attr xi 1

scalar . 	a 	1
scalar . 	csize 	1e3
scalar . 	ctlg 	1e5
scalar . 	lambda 	100
scalar . 	mytime 	1800
scalar . 	pricebits 	0
scalar . 	priceratiovalue 	10
scalar . 	rep 	1
scalar . 	ttl 	10
scalar . 	variance 	0.05
scalar . 	window 	60
scalar . 	xi 	1
scalar abilene_cost_network.content_distribution 	repo-0 	10
scalar abilene_cost_network.content_distribution 	repo-1 	7
scalar abilene_cost_network.content_distribution 	repo-2 	5
scalar abilene_cost_network.content_distribution 	client-0 	8
scalar abilene_cost_network.content_distribution 	client-1 	7
scalar abilene_cost_network.content_distribution 	client-2 	2
scalar abilene_cost_network.content_distribution 	repo-0_card 	33397
scalar abilene_cost_network.content_distribution 	repo-0_price 	0
scalar abilene_cost_network.content_distribution 	repo-1_card 	33041
scalar abilene_cost_network.content_distribution 	repo-1_price 	10
scalar abilene_cost_network.content_distribution 	repo-2_card 	33562
scalar abilene_cost_network.content_distribution 	repo-2_price 	1
scalar abilene_cost_network.statistics 	repo_popularity[0] 	0.36106327575467
scalar abilene_cost_network.statistics 	repo_popularity[1] 	0.3490006524958
scalar abilene_cost_network.statistics 	repo_popularity[2] 	0.28993607174955
scalar abilene_cost_network.statistics 	stabilization_time 	36060
scalar abilene_cost_network.statistics 	p_hit 	0.25937703597061
scalar abilene_cost_network.statistics 	interests 	103117
scalar abilene_cost_network.statistics 	data 	54039.909090909
scalar abilene_cost_network.statistics 	hdistance 	1.5558233675511
scalar abilene_cost_network.statistics 	avg_time 	0.007036821143
scalar abilene_cost_network.statistics 	downloads 	539795
scalar abilene_cost_network.statistics 	total_cost 	1044823
scalar abilene_cost_network.statistics 	total_replicas 	100000
scalar abilene_cost_network.statistics 	inner_hit 	0.5450735927528
scalar abilene_cost_network.node[0].core_layer 	interests[0] 	0
scalar abilene_cost_network.node[0].core_layer 	data[0] 	0
scalar abilene_cost_network.node[0].core_layer 	repo_int[0] 	245567
scalar abilene_cost_network.node[0].content_store 	p_hit[0] 	-nan
scalar abilene_cost_network.node[0].content_store 	hits[0] 	0
scalar abilene_cost_network.node[0].content_store 	misses[0] 	0
scalar abilene_cost_network.node[0].content_store 	decision_yes[0] 	0
scalar abilene_cost_network.node[0].content_store 	decision_no[0] 	0
scalar abilene_cost_network.node[0].content_store 	decision_ratio[0] 	0
scalar abilene_cost_network.node[1].core_layer 	interests[1] 	32898
scalar abilene_cost_network.node[1].core_layer 	data[1] 	26849
scalar abilene_cost_network.node[1].content_store 	p_hit[1] 	0.18384096297647
scalar abilene_cost_network.node[1].content_store 	hits[1] 	6048
scalar abilene_cost_network.node[1].content_store 	misses[1] 	26850
scalar abilene_cost_network.node[1].content_store 	decision_yes[1] 	25
scalar abilene_cost_network.node[1].content_store 	decision_no[1] 	26824
scalar abilene_cost_network.node[1].content_store 	decision_ratio[1] 	0.00093113337554471
scalar abilene_cost_network.node[2].core_layer 	interests[2] 	198978
scalar abilene_cost_network.node[2].core_layer 	data[2] 	118343
scalar abilene_cost_network.node[2].content_store 	p_hit[2] 	0.40515031812562
scalar abilene_cost_network.node[2].content_store 	hits[2] 	80616
scalar abilene_cost_network.node[2].content_store 	misses[2] 	118362
scalar abilene_cost_network.node[2].content_store 	decision_yes[2] 	116
scalar abilene_cost_network.node[2].content_store 	decision_no[2] 	118227
scalar abilene_cost_network.node[2].content_store 	decision_ratio[2] 	0.00098020161733267
scalar abilene_cost_network.node[3].core_layer 	interests[3] 	85081
scalar abilene_cost_network.node[3].core_layer 	data[3] 	71180
scalar abilene_cost_network.node[3].content_store 	p_hit[3] 	0.16338547971933
scalar abilene_cost_network.node[3].content_store 	hits[3] 	13901
scalar abilene_cost_network.node[3].content_store 	misses[3] 	71180
scalar abilene_cost_network.node[3].content_store 	decision_yes[3] 	72
scalar abilene_cost_network.node[3].content_store 	decision_no[3] 	71108
scalar abilene_cost_network.node[3].content_store 	decision_ratio[3] 	0.0010115200899129
scalar abilene_cost_network.node[4].core_layer 	interests[4] 	30772
scalar abilene_cost_network.node[4].core_layer 	data[4] 	26606
scalar abilene_cost_network.node[4].content_store 	p_hit[4] 	0.1353828155466
scalar abilene_cost_network.node[4].content_store 	hits[4] 	4166
scalar abilene_cost_network.node[4].content_store 	misses[4] 	26606
scalar abilene_cost_network.node[4].content_store 	decision_yes[4] 	25
scalar abilene_cost_network.node[4].content_store 	decision_no[4] 	26581
scalar abilene_cost_network.node[4].content_store 	decision_ratio[4] 	0.00093963767571225
scalar abilene_cost_network.node[5].core_layer 	interests[5] 	79084
scalar abilene_cost_network.node[5].core_layer 	repo_load[5] 	73823
scalar abilene_cost_network.node[5].core_layer 	data[5] 	0
scalar abilene_cost_network.node[5].content_store 	p_hit[5] 	0.066524202114208
scalar abilene_cost_network.node[5].content_store 	hits[5] 	5261
scalar abilene_cost_network.node[5].content_store 	misses[5] 	73823
scalar abilene_cost_network.node[5].content_store 	decision_yes[5] 	85
scalar abilene_cost_network.node[5].content_store 	decision_no[5] 	73738
scalar abilene_cost_network.node[5].content_store 	decision_ratio[5] 	0.0011514026793818
scalar abilene_cost_network.node[6].core_layer 	interests[6] 	59923
scalar abilene_cost_network.node[6].core_layer 	data[6] 	52478
scalar abilene_cost_network.node[6].content_store 	p_hit[6] 	0.12424277823206
scalar abilene_cost_network.node[6].content_store 	hits[6] 	7445
scalar abilene_cost_network.node[6].content_store 	misses[6] 	52478
scalar abilene_cost_network.node[6].content_store 	decision_yes[6] 	61
scalar abilene_cost_network.node[6].content_store 	decision_no[6] 	52417
scalar abilene_cost_network.node[6].content_store 	decision_ratio[6] 	0.0011623918594459
scalar abilene_cost_network.node[7].core_layer 	interests[7] 	280701
scalar abilene_cost_network.node[7].core_layer 	repo_load[7] 	97100
scalar abilene_cost_network.node[7].core_layer 	data[7] 	104652
scalar abilene_cost_network.node[7].content_store 	p_hit[7] 	0.28120669324299
scalar abilene_cost_network.node[7].content_store 	hits[7] 	78935
scalar abilene_cost_network.node[7].content_store 	misses[7] 	201766
scalar abilene_cost_network.node[7].content_store 	decision_yes[7] 	193
scalar abilene_cost_network.node[7].content_store 	decision_no[7] 	201559
scalar abilene_cost_network.node[7].content_store 	decision_ratio[7] 	0.00095662000872358
scalar abilene_cost_network.node[8].core_layer 	interests[8] 	224688
scalar abilene_cost_network.node[8].core_layer 	data[8] 	140937
scalar abilene_cost_network.node[8].content_store 	p_hit[8] 	0.37256996368297
scalar abilene_cost_network.node[8].content_store 	hits[8] 	83712
scalar abilene_cost_network.node[8].content_store 	misses[8] 	140976
scalar abilene_cost_network.node[8].content_store 	decision_yes[8] 	152
scalar abilene_cost_network.node[8].content_store 	decision_no[8] 	140785
scalar abilene_cost_network.node[8].content_store 	decision_ratio[8] 	0.001078496065618
scalar abilene_cost_network.node[9].core_layer 	interests[9] 	61918
scalar abilene_cost_network.node[9].core_layer 	data[9] 	53394
scalar abilene_cost_network.node[9].content_store 	p_hit[9] 	0.13766594528247
scalar abilene_cost_network.node[9].content_store 	hits[9] 	8524
scalar abilene_cost_network.node[9].content_store 	misses[9] 	53394
scalar abilene_cost_network.node[9].content_store 	decision_yes[9] 	48
scalar abilene_cost_network.node[9].content_store 	decision_no[9] 	53346
scalar abilene_cost_network.node[9].content_store 	decision_ratio[9] 	0.00089897741319249
scalar abilene_cost_network.node[10].core_layer 	interests[10] 	80244
scalar abilene_cost_network.node[10].core_layer 	repo_load[10] 	74644
scalar abilene_cost_network.node[10].core_layer 	data[10] 	0
scalar abilene_cost_network.node[10].content_store 	p_hit[10] 	0.069787149194955
scalar abilene_cost_network.node[10].content_store 	hits[10] 	5600
scalar abilene_cost_network.node[10].content_store 	misses[10] 	74644
scalar abilene_cost_network.node[10].content_store 	decision_yes[10] 	87
scalar abilene_cost_network.node[10].content_store 	decision_no[10] 	74557
scalar abilene_cost_network.node[10].content_store 	decision_ratio[10] 	0.0011655323937624
scalar abilene_cost_network.client[2] 	hdistance[2] 	1.7238092076507
scalar abilene_cost_network.client[2] 	downloads[2] 	180741
scalar abilene_cost_network.client[2] 	avg_time[2] 	0.00730437344
scalar abilene_cost_network.client[7] 	hdistance[7] 	1.3844293761387
scalar abilene_cost_network.client[7] 	downloads[7] 	179479
scalar abilene_cost_network.client[7] 	avg_time[7] 	0.006115955614
scalar abilene_cost_network.client[8] 	hdistance[8] 	1.559231518864
scalar abilene_cost_network.client[8] 	downloads[8] 	179575
scalar abilene_cost_network.client[8] 	avg_time[8] 	0.007690134377
