version 2
run General-19-20141007-11:55:26-22109
attr D fix0.001
attr F nrr
attr R lru
attr a 1
attr configname General
attr csize 1e3
attr ctlg 1e5
attr datetime 20141007-11:55:26
attr experiment General
attr inifile omnetpp.ini
attr iterationvars "$net=abilene_cost, $rep=3, $priceratiovalue=10, $weights=0.333_0.333_0.334, $lambda=100, $a=1, $ctlg=1e5, $F=nrr, $ttl=10, $D=fix0.001, $xi=1, $R=lru, $csize=1e3, $pricebits=0, $window=60, $variance=0.05, $mytime=1800"
attr iterationvars2 "$net=abilene_cost, $rep=3, $priceratiovalue=10, $weights=0.333_0.333_0.334, $lambda=100, $a=1, $ctlg=1e5, $F=nrr, $ttl=10, $D=fix0.001, $xi=1, $R=lru, $csize=1e3, $pricebits=0, $window=60, $variance=0.05, $mytime=1800, $repetition=0"
attr lambda 100
attr measurement "$net=abilene_cost, $rep=3, $priceratiovalue=10, $weights=0.333_0.333_0.334, $lambda=100, $a=1, $ctlg=1e5, $F=nrr, $ttl=10, $D=fix0.001, $xi=1, $R=lru, $csize=1e3, $pricebits=0, $window=60, $variance=0.05, $mytime=1800"
attr mytime 1800
attr net abilene_cost
attr network networks.${net=abilene_cost,geant_cost}_network
attr pricebits 0
attr priceratiovalue 10
attr processid 22109
attr rep 3
attr repetition 0
attr replication #0
attr resultdir results
attr runnumber 19
attr seedset 3
attr ttl 10
attr variance 0.05
attr weights 0.333_0.333_0.334
attr window 60
attr xi 1

scalar . 	a 	1
scalar . 	csize 	1e3
scalar . 	ctlg 	1e5
scalar . 	lambda 	100
scalar . 	mytime 	1800
scalar . 	pricebits 	0
scalar . 	priceratiovalue 	10
scalar . 	rep 	3
scalar . 	ttl 	10
scalar . 	variance 	0.05
scalar . 	window 	60
scalar . 	xi 	1
scalar abilene_cost_network.content_distribution 	repo-0 	9
scalar abilene_cost_network.content_distribution 	repo-1 	4
scalar abilene_cost_network.content_distribution 	repo-2 	0
scalar abilene_cost_network.content_distribution 	client-0 	9
scalar abilene_cost_network.content_distribution 	client-1 	0
scalar abilene_cost_network.content_distribution 	client-2 	1
scalar abilene_cost_network.content_distribution 	repo-0_card 	33498
scalar abilene_cost_network.content_distribution 	repo-0_price 	0
scalar abilene_cost_network.content_distribution 	repo-1_card 	33168
scalar abilene_cost_network.content_distribution 	repo-1_price 	10
scalar abilene_cost_network.content_distribution 	repo-2_card 	33334
scalar abilene_cost_network.content_distribution 	repo-2_price 	1
scalar abilene_cost_network.statistics 	repo_popularity[0] 	0.34820484875244
scalar abilene_cost_network.statistics 	repo_popularity[1] 	0.25519349814637
scalar abilene_cost_network.statistics 	repo_popularity[2] 	0.3966016531012
scalar abilene_cost_network.statistics 	stabilization_time 	36060
scalar abilene_cost_network.statistics 	p_hit 	0.25107353023951
scalar abilene_cost_network.statistics 	interests 	100136.90909091
scalar abilene_cost_network.statistics 	data 	51137.909090909
scalar abilene_cost_network.statistics 	hdistance 	1.5306264864287
scalar abilene_cost_network.statistics 	avg_time 	0.00676980912
scalar abilene_cost_network.statistics 	downloads 	538943
scalar abilene_cost_network.statistics 	total_cost 	778309
scalar abilene_cost_network.statistics 	total_replicas 	100000
scalar abilene_cost_network.statistics 	inner_hit 	0.51316744071265
scalar abilene_cost_network.node[0].core_layer 	interests[0] 	246990
scalar abilene_cost_network.node[0].core_layer 	repo_load[0] 	94289
scalar abilene_cost_network.node[0].core_layer 	data[0] 	73315
scalar abilene_cost_network.node[0].core_layer 	repo_int[0] 	262375
scalar abilene_cost_network.node[0].content_store 	p_hit[0] 	0.32136118871209
scalar abilene_cost_network.node[0].content_store 	hits[0] 	79373
scalar abilene_cost_network.node[0].content_store 	misses[0] 	167617
scalar abilene_cost_network.node[0].content_store 	decision_yes[0] 	172
scalar abilene_cost_network.node[0].content_store 	decision_no[0] 	167432
scalar abilene_cost_network.node[0].content_store 	decision_ratio[0] 	0.0010262284909668
scalar abilene_cost_network.node[1].core_layer 	interests[1] 	216074
scalar abilene_cost_network.node[1].core_layer 	data[1] 	138687
scalar abilene_cost_network.node[1].content_store 	p_hit[1] 	0.35803937539917
scalar abilene_cost_network.node[1].content_store 	hits[1] 	77363
scalar abilene_cost_network.node[1].content_store 	misses[1] 	138711
scalar abilene_cost_network.node[1].content_store 	decision_yes[1] 	129
scalar abilene_cost_network.node[1].content_store 	decision_no[1] 	138558
scalar abilene_cost_network.node[1].content_store 	decision_ratio[1] 	0.00093015206904757
scalar abilene_cost_network.node[2].core_layer 	interests[2] 	89873
scalar abilene_cost_network.node[2].core_layer 	data[2] 	80411
scalar abilene_cost_network.node[2].content_store 	p_hit[2] 	0.10525964416454
scalar abilene_cost_network.node[2].content_store 	hits[2] 	9460
scalar abilene_cost_network.node[2].content_store 	misses[2] 	80413
scalar abilene_cost_network.node[2].content_store 	decision_yes[2] 	101
scalar abilene_cost_network.node[2].content_store 	decision_no[2] 	80310
scalar abilene_cost_network.node[2].content_store 	decision_ratio[2] 	0.0012560470582383
scalar abilene_cost_network.node[3].core_layer 	interests[3] 	76409
scalar abilene_cost_network.node[3].core_layer 	data[3] 	71837
scalar abilene_cost_network.node[3].content_store 	p_hit[3] 	0.059848970670994
scalar abilene_cost_network.node[3].content_store 	hits[3] 	4573
scalar abilene_cost_network.node[3].content_store 	misses[3] 	71836
scalar abilene_cost_network.node[3].content_store 	decision_yes[3] 	72
scalar abilene_cost_network.node[3].content_store 	decision_no[3] 	71765
scalar abilene_cost_network.node[3].content_store 	decision_ratio[3] 	0.001002269025711
scalar abilene_cost_network.node[4].core_layer 	interests[4] 	71837
scalar abilene_cost_network.node[4].core_layer 	repo_load[4] 	68402
scalar abilene_cost_network.node[4].core_layer 	data[4] 	0
scalar abilene_cost_network.node[4].content_store 	p_hit[4] 	0.047816584768295
scalar abilene_cost_network.node[4].content_store 	hits[4] 	3435
scalar abilene_cost_network.node[4].content_store 	misses[4] 	68402
scalar abilene_cost_network.node[4].content_store 	decision_yes[4] 	72
scalar abilene_cost_network.node[4].content_store 	decision_no[4] 	68330
scalar abilene_cost_network.node[4].content_store 	decision_ratio[4] 	0.0010526008011462
scalar abilene_cost_network.node[5].core_layer 	interests[5] 	0
scalar abilene_cost_network.node[5].core_layer 	data[5] 	0
scalar abilene_cost_network.node[5].content_store 	p_hit[5] 	-nan
scalar abilene_cost_network.node[5].content_store 	hits[5] 	0
scalar abilene_cost_network.node[5].content_store 	misses[5] 	0
scalar abilene_cost_network.node[5].content_store 	decision_yes[5] 	0
scalar abilene_cost_network.node[5].content_store 	decision_no[5] 	0
scalar abilene_cost_network.node[5].content_store 	decision_ratio[5] 	0
scalar abilene_cost_network.node[6].core_layer 	interests[6] 	0
scalar abilene_cost_network.node[6].core_layer 	data[6] 	0
scalar abilene_cost_network.node[6].content_store 	p_hit[6] 	-nan
scalar abilene_cost_network.node[6].content_store 	hits[6] 	0
scalar abilene_cost_network.node[6].content_store 	misses[6] 	0
scalar abilene_cost_network.node[6].content_store 	decision_yes[6] 	0
scalar abilene_cost_network.node[6].content_store 	decision_no[6] 	0
scalar abilene_cost_network.node[6].content_store 	decision_ratio[6] 	0
scalar abilene_cost_network.node[7].core_layer 	interests[7] 	0
scalar abilene_cost_network.node[7].core_layer 	data[7] 	0
scalar abilene_cost_network.node[7].content_store 	p_hit[7] 	-nan
scalar abilene_cost_network.node[7].content_store 	hits[7] 	0
scalar abilene_cost_network.node[7].content_store 	misses[7] 	0
scalar abilene_cost_network.node[7].content_store 	decision_yes[7] 	0
scalar abilene_cost_network.node[7].content_store 	decision_no[7] 	0
scalar abilene_cost_network.node[7].content_store 	decision_ratio[7] 	0
scalar abilene_cost_network.node[8].core_layer 	interests[8] 	35979
scalar abilene_cost_network.node[8].core_layer 	data[8] 	27866
scalar abilene_cost_network.node[8].content_store 	p_hit[8] 	0.22552044248034
scalar abilene_cost_network.node[8].content_store 	hits[8] 	8114
scalar abilene_cost_network.node[8].content_store 	misses[8] 	27865
scalar abilene_cost_network.node[8].content_store 	decision_yes[8] 	29
scalar abilene_cost_network.node[8].content_store 	decision_no[8] 	27837
scalar abilene_cost_network.node[8].content_store 	decision_ratio[8] 	0.001040694753463
scalar abilene_cost_network.node[9].core_layer 	interests[9] 	245516
scalar abilene_cost_network.node[9].core_layer 	repo_load[9] 	99684
scalar abilene_cost_network.node[9].core_layer 	data[9] 	71573
scalar abilene_cost_network.node[9].content_store 	p_hit[9] 	0.30239984359471
scalar abilene_cost_network.node[9].content_store 	hits[9] 	74244
scalar abilene_cost_network.node[9].content_store 	misses[9] 	171272
scalar abilene_cost_network.node[9].content_store 	decision_yes[9] 	175
scalar abilene_cost_network.node[9].content_store 	decision_no[9] 	171082
scalar abilene_cost_network.node[9].content_store 	decision_ratio[9] 	0.001021856040921
scalar abilene_cost_network.node[10].core_layer 	interests[10] 	118828
scalar abilene_cost_network.node[10].core_layer 	data[10] 	98828
scalar abilene_cost_network.node[10].content_store 	p_hit[10] 	0.16828525263406
scalar abilene_cost_network.node[10].content_store 	hits[10] 	19997
scalar abilene_cost_network.node[10].content_store 	misses[10] 	98831
scalar abilene_cost_network.node[10].content_store 	decision_yes[10] 	101
scalar abilene_cost_network.node[10].content_store 	decision_no[10] 	98727
scalar abilene_cost_network.node[10].content_store 	decision_ratio[10] 	0.0010219775772048
scalar abilene_cost_network.client[0] 	hdistance[0] 	1.5358815353959
scalar abilene_cost_network.client[0] 	downloads[0] 	179159
scalar abilene_cost_network.client[0] 	avg_time[0] 	0.006411752103
scalar abilene_cost_network.client[1] 	hdistance[1] 	1.5394452730227
scalar abilene_cost_network.client[1] 	downloads[1] 	179692
scalar abilene_cost_network.client[1] 	avg_time[1] 	0.007116889828
scalar abilene_cost_network.client[9] 	hdistance[9] 	1.5165526508673
scalar abilene_cost_network.client[9] 	downloads[9] 	180092
scalar abilene_cost_network.client[9] 	avg_time[9] 	0.00678078543
