version 2
run General-19-20141007-11:16:21-28166
attr D fix0.001
attr F nrr
attr R lru
attr a 1
attr configname General
attr csize 1e3
attr ctlg 1e5
attr datetime 20141007-11:16:21
attr experiment General
attr inifile omnetpp.ini
attr iterationvars "$net=abilene_cost, $rep=5, $priceratiovalue=10, $weights=0.333_0.333_0.334, $lambda=100, $a=1, $ctlg=1e5, $F=nrr, $ttl=10, $D=fix0.001, $xi=1, $R=lru, $csize=1e3, $pricebits=0, $window=60, $variance=0.05, $mytime=1800"
attr iterationvars2 "$net=abilene_cost, $rep=5, $priceratiovalue=10, $weights=0.333_0.333_0.334, $lambda=100, $a=1, $ctlg=1e5, $F=nrr, $ttl=10, $D=fix0.001, $xi=1, $R=lru, $csize=1e3, $pricebits=0, $window=60, $variance=0.05, $mytime=1800, $repetition=0"
attr lambda 100
attr measurement "$net=abilene_cost, $rep=5, $priceratiovalue=10, $weights=0.333_0.333_0.334, $lambda=100, $a=1, $ctlg=1e5, $F=nrr, $ttl=10, $D=fix0.001, $xi=1, $R=lru, $csize=1e3, $pricebits=0, $window=60, $variance=0.05, $mytime=1800"
attr mytime 1800
attr net abilene_cost
attr network networks.${net=abilene_cost,geant_cost}_network
attr pricebits 0
attr priceratiovalue 10
attr processid 28166
attr rep 5
attr repetition 0
attr replication #0
attr resultdir results
attr runnumber 19
attr seedset 5
attr ttl 10
attr variance 0.05
attr weights 0.333_0.333_0.334
attr window 60
attr xi 1

scalar . 	a 	1
scalar . 	csize 	1e3
scalar . 	ctlg 	1e5
scalar . 	lambda 	100
scalar . 	mytime 	1800
scalar . 	pricebits 	0
scalar . 	priceratiovalue 	10
scalar . 	rep 	5
scalar . 	ttl 	10
scalar . 	variance 	0.05
scalar . 	window 	60
scalar . 	xi 	1
scalar abilene_cost_network.content_distribution 	repo-0 	9
scalar abilene_cost_network.content_distribution 	repo-1 	5
scalar abilene_cost_network.content_distribution 	repo-2 	1
scalar abilene_cost_network.content_distribution 	client-0 	4
scalar abilene_cost_network.content_distribution 	client-1 	9
scalar abilene_cost_network.content_distribution 	client-2 	0
scalar abilene_cost_network.content_distribution 	repo-0_card 	33098
scalar abilene_cost_network.content_distribution 	repo-0_price 	1
scalar abilene_cost_network.content_distribution 	repo-1_card 	33495
scalar abilene_cost_network.content_distribution 	repo-1_price 	10
scalar abilene_cost_network.content_distribution 	repo-2_card 	33407
scalar abilene_cost_network.content_distribution 	repo-2_price 	0
scalar abilene_cost_network.statistics 	repo_popularity[0] 	0.31037770261398
scalar abilene_cost_network.statistics 	repo_popularity[1] 	0.29913869324176
scalar abilene_cost_network.statistics 	repo_popularity[2] 	0.39048360414427
scalar abilene_cost_network.statistics 	stabilization_time 	5588.7
scalar abilene_cost_network.statistics 	p_hit 	0.22271010298134
scalar abilene_cost_network.statistics 	interests 	115713.81818182
scalar abilene_cost_network.statistics 	data 	66536.727272727
scalar abilene_cost_network.statistics 	hdistance 	1.8290233500283
scalar abilene_cost_network.statistics 	avg_time 	0.008922923901
scalar abilene_cost_network.statistics 	downloads 	540883
scalar abilene_cost_network.statistics 	total_cost 	880359
scalar abilene_cost_network.statistics 	total_replicas 	100000
scalar abilene_cost_network.statistics 	inner_hit 	0.52410225501633
scalar abilene_cost_network.node[0].core_layer 	interests[0] 	183813
scalar abilene_cost_network.node[0].core_layer 	data[0] 	108427
scalar abilene_cost_network.node[0].core_layer 	repo_int[0] 	257405
scalar abilene_cost_network.node[0].content_store 	p_hit[0] 	0.40998732407392
scalar abilene_cost_network.node[0].content_store 	hits[0] 	75361
scalar abilene_cost_network.node[0].content_store 	misses[0] 	108452
scalar abilene_cost_network.node[0].content_store 	decision_yes[0] 	110
scalar abilene_cost_network.node[0].content_store 	decision_no[0] 	108317
scalar abilene_cost_network.node[0].content_store 	decision_ratio[0] 	0.0010145074566298
scalar abilene_cost_network.node[1].core_layer 	interests[1] 	137171
scalar abilene_cost_network.node[1].core_layer 	repo_load[1] 	86705
scalar abilene_cost_network.node[1].core_layer 	data[1] 	36832
scalar abilene_cost_network.node[1].content_store 	p_hit[1] 	0.099394186817913
scalar abilene_cost_network.node[1].content_store 	hits[1] 	13634
scalar abilene_cost_network.node[1].content_store 	misses[1] 	123537
scalar abilene_cost_network.node[1].content_store 	decision_yes[1] 	124
scalar abilene_cost_network.node[1].content_store 	decision_no[1] 	123413
scalar abilene_cost_network.node[1].content_store 	decision_ratio[1] 	0.0010037478650121
scalar abilene_cost_network.node[2].core_layer 	interests[2] 	107057
scalar abilene_cost_network.node[2].core_layer 	data[2] 	97528
scalar abilene_cost_network.node[2].content_store 	p_hit[2] 	0.088999318120254
scalar abilene_cost_network.node[2].content_store 	hits[2] 	9528
scalar abilene_cost_network.node[2].content_store 	misses[2] 	97529
scalar abilene_cost_network.node[2].content_store 	decision_yes[2] 	89
scalar abilene_cost_network.node[2].content_store 	decision_no[2] 	97439
scalar abilene_cost_network.node[2].content_store 	decision_ratio[2] 	0.00091255844475433
scalar abilene_cost_network.node[3].core_layer 	interests[3] 	109354
scalar abilene_cost_network.node[3].core_layer 	data[3] 	97722
scalar abilene_cost_network.node[3].content_store 	p_hit[3] 	0.10636099273918
scalar abilene_cost_network.node[3].content_store 	hits[3] 	11631
scalar abilene_cost_network.node[3].content_store 	misses[3] 	97723
scalar abilene_cost_network.node[3].content_store 	decision_yes[3] 	92
scalar abilene_cost_network.node[3].content_store 	decision_no[3] 	97630
scalar abilene_cost_network.node[3].content_store 	decision_ratio[3] 	0.00094144614314075
scalar abilene_cost_network.node[4].core_layer 	interests[4] 	206754
scalar abilene_cost_network.node[4].core_layer 	data[4] 	134830
scalar abilene_cost_network.node[4].content_store 	p_hit[4] 	0.34780947406096
scalar abilene_cost_network.node[4].content_store 	hits[4] 	71911
scalar abilene_cost_network.node[4].content_store 	misses[4] 	134843
scalar abilene_cost_network.node[4].content_store 	decision_yes[4] 	123
scalar abilene_cost_network.node[4].content_store 	decision_no[4] 	134707
scalar abilene_cost_network.node[4].content_store 	decision_ratio[4] 	0.0009122598828154
scalar abilene_cost_network.node[5].core_layer 	interests[5] 	84624
scalar abilene_cost_network.node[5].core_layer 	repo_load[5] 	78851
scalar abilene_cost_network.node[5].core_layer 	data[5] 	0
scalar abilene_cost_network.node[5].content_store 	p_hit[5] 	0.068219417659293
scalar abilene_cost_network.node[5].content_store 	hits[5] 	5773
scalar abilene_cost_network.node[5].content_store 	misses[5] 	78851
scalar abilene_cost_network.node[5].content_store 	decision_yes[5] 	67
scalar abilene_cost_network.node[5].content_store 	decision_no[5] 	78784
scalar abilene_cost_network.node[5].content_store 	decision_ratio[5] 	0.00084970387185958
scalar abilene_cost_network.node[6].core_layer 	interests[6] 	28024
scalar abilene_cost_network.node[6].core_layer 	data[6] 	26709
scalar abilene_cost_network.node[6].content_store 	p_hit[6] 	0.046924065087068
scalar abilene_cost_network.node[6].content_store 	hits[6] 	1315
scalar abilene_cost_network.node[6].content_store 	misses[6] 	26709
scalar abilene_cost_network.node[6].content_store 	decision_yes[6] 	29
scalar abilene_cost_network.node[6].content_store 	decision_no[6] 	26680
scalar abilene_cost_network.node[6].content_store 	decision_ratio[6] 	0.001085776330076
scalar abilene_cost_network.node[7].core_layer 	interests[7] 	31655
scalar abilene_cost_network.node[7].core_layer 	data[7] 	28024
scalar abilene_cost_network.node[7].content_store 	p_hit[7] 	0.1147054177855
scalar abilene_cost_network.node[7].content_store 	hits[7] 	3631
scalar abilene_cost_network.node[7].content_store 	misses[7] 	28024
scalar abilene_cost_network.node[7].content_store 	decision_yes[7] 	29
scalar abilene_cost_network.node[7].content_store 	decision_no[7] 	27995
scalar abilene_cost_network.node[7].content_store 	decision_ratio[7] 	0.0010348272908935
scalar abilene_cost_network.node[8].core_layer 	interests[8] 	67592
scalar abilene_cost_network.node[8].core_layer 	data[8] 	61359
scalar abilene_cost_network.node[8].content_store 	p_hit[8] 	0.092215055036099
scalar abilene_cost_network.node[8].content_store 	hits[8] 	6233
scalar abilene_cost_network.node[8].content_store 	misses[8] 	61359
scalar abilene_cost_network.node[8].content_store 	decision_yes[8] 	59
scalar abilene_cost_network.node[8].content_store 	decision_no[8] 	61300
scalar abilene_cost_network.node[8].content_store 	decision_ratio[8] 	0.00096155413223814
scalar abilene_cost_network.node[9].core_layer 	interests[9] 	241301
scalar abilene_cost_network.node[9].core_layer 	repo_load[9] 	91849
scalar abilene_cost_network.node[9].core_layer 	data[9] 	73935
scalar abilene_cost_network.node[9].content_store 	p_hit[9] 	0.312849926026
scalar abilene_cost_network.node[9].content_store 	hits[9] 	75491
scalar abilene_cost_network.node[9].content_store 	misses[9] 	165810
scalar abilene_cost_network.node[9].content_store 	decision_yes[9] 	184
scalar abilene_cost_network.node[9].content_store 	decision_no[9] 	165600
scalar abilene_cost_network.node[9].content_store 	decision_ratio[9] 	0.0011098779134295
scalar abilene_cost_network.node[10].core_layer 	interests[10] 	75507
scalar abilene_cost_network.node[10].core_layer 	data[10] 	66538
scalar abilene_cost_network.node[10].content_store 	p_hit[10] 	0.1187836889295
scalar abilene_cost_network.node[10].content_store 	hits[10] 	8969
scalar abilene_cost_network.node[10].content_store 	misses[10] 	66538
scalar abilene_cost_network.node[10].content_store 	decision_yes[10] 	56
scalar abilene_cost_network.node[10].content_store 	decision_no[10] 	66482
scalar abilene_cost_network.node[10].content_store 	decision_ratio[10] 	0.00084162433496649
scalar abilene_cost_network.client[0] 	hdistance[0] 	1.9262153065166
scalar abilene_cost_network.client[0] 	downloads[0] 	181230
scalar abilene_cost_network.client[0] 	avg_time[0] 	0.010005243422
scalar abilene_cost_network.client[4] 	hdistance[4] 	1.9823112353731
scalar abilene_cost_network.client[4] 	downloads[4] 	179549
scalar abilene_cost_network.client[4] 	avg_time[4] 	0.008654654324
scalar abilene_cost_network.client[9] 	hdistance[9] 	1.5785435081953
scalar abilene_cost_network.client[9] 	downloads[9] 	180104
scalar abilene_cost_network.client[9] 	avg_time[9] 	0.008108873957
