version 2
run General-0-20141031-11:24:45-25684
attr D fix0.01
attr F spr
attr R lru
attr a 1
attr configname General
attr csize 1e3
attr ctlg 1e5
attr datetime 20141031-11:24:45
attr experiment General
attr inifile omnetpp.ini
attr iterationvars "$rep=15, $lambda=100, $a=1, $ctlg=1e5, $F=spr, $ttl=10, $D=fix0.01, $R=lru, $csize=1e3, $window=60, $variance=0.05, $mytime=1800, $kappa=1, $priceratiovalue=10, $pricebits=0"
attr iterationvars2 "$rep=15, $lambda=100, $a=1, $ctlg=1e5, $F=spr, $ttl=10, $D=fix0.01, $R=lru, $csize=1e3, $window=60, $variance=0.05, $mytime=1800, $kappa=1, $priceratiovalue=10, $pricebits=0, $repetition=0"
attr kappa 1
attr lambda 100
attr measurement "$rep=15, $lambda=100, $a=1, $ctlg=1e5, $F=spr, $ttl=10, $D=fix0.01, $R=lru, $csize=1e3, $window=60, $variance=0.05, $mytime=1800, $kappa=1, $priceratiovalue=10, $pricebits=0"
attr mytime 1800
attr network networks.ws${rep}_network
attr pricebits 0
attr priceratiovalue 10
attr processid 25684
attr rep 15
attr repetition 0
attr replication #0
attr resultdir results
attr runnumber 0
attr seedset 15
attr ttl 10
attr variance 0.05
attr window 60

scalar . 	a 	1
scalar . 	csize 	1e3
scalar . 	ctlg 	1e5
scalar . 	kappa 	1
scalar . 	lambda 	100
scalar . 	mytime 	1800
scalar . 	pricebits 	0
scalar . 	priceratiovalue 	10
scalar . 	rep 	15
scalar . 	ttl 	10
scalar . 	variance 	0.05
scalar . 	window 	60
scalar ws15_network.content_distribution 	repo-0 	5
scalar ws15_network.content_distribution 	repo-1 	8
scalar ws15_network.content_distribution 	repo-2 	20
scalar ws15_network.content_distribution 	client-0 	19
scalar ws15_network.content_distribution 	client-1 	18
scalar ws15_network.content_distribution 	client-2 	11
scalar ws15_network.content_distribution 	repo-0_card 	33352
scalar ws15_network.content_distribution 	repo-0_price 	1
scalar ws15_network.content_distribution 	repo-1_card 	33287
scalar ws15_network.content_distribution 	repo-1_price 	0
scalar ws15_network.content_distribution 	repo-2_card 	33361
scalar ws15_network.content_distribution 	repo-2_price 	10
scalar ws15_network.statistics 	repo_popularity[0] 	0.39661812235512
scalar ws15_network.statistics 	repo_popularity[1] 	0.26899614044563
scalar ws15_network.statistics 	repo_popularity[2] 	0.33438573719926
scalar ws15_network.statistics 	stabilization_time 	36060
scalar ws15_network.statistics 	p_hit 	0.21279264064142
scalar ws15_network.statistics 	interests 	50706
scalar ws15_network.statistics 	data 	26185.636363636
scalar ws15_network.statistics 	hdistance 	1.6281412354644
scalar ws15_network.statistics 	avg_time 	0.00553328626
scalar ws15_network.statistics 	downloads 	539361
scalar ws15_network.statistics 	total_cost 	1080485
scalar ws15_network.statistics 	total_replicas 	100000
scalar ws15_network.statistics 	inner_hit 	0.44012080962472
scalar ws15_network.statistics 	interests_sent 	539446
scalar ws15_network.node[0].core_layer 	interests[0] 	0
scalar ws15_network.node[0].core_layer 	data[0] 	0
scalar ws15_network.node[0].core_layer 	repo_int[0] 	301977
scalar ws15_network.node[0].content_store 	p_hit[0] 	-nan
scalar ws15_network.node[0].content_store 	hits[0] 	0
scalar ws15_network.node[0].content_store 	misses[0] 	0
scalar ws15_network.node[0].content_store 	decision_yes[0] 	0
scalar ws15_network.node[0].content_store 	decision_no[0] 	0
scalar ws15_network.node[0].content_store 	decision_ratio[0] 	0
scalar ws15_network.node[1].core_layer 	interests[1] 	0
scalar ws15_network.node[1].core_layer 	data[1] 	0
scalar ws15_network.node[1].content_store 	p_hit[1] 	-nan
scalar ws15_network.node[1].content_store 	hits[1] 	0
scalar ws15_network.node[1].content_store 	misses[1] 	0
scalar ws15_network.node[1].content_store 	decision_yes[1] 	0
scalar ws15_network.node[1].content_store 	decision_no[1] 	0
scalar ws15_network.node[1].content_store 	decision_ratio[1] 	0
scalar ws15_network.node[2].core_layer 	interests[2] 	0
scalar ws15_network.node[2].core_layer 	data[2] 	0
scalar ws15_network.node[2].content_store 	p_hit[2] 	-nan
scalar ws15_network.node[2].content_store 	hits[2] 	0
scalar ws15_network.node[2].content_store 	misses[2] 	0
scalar ws15_network.node[2].content_store 	decision_yes[2] 	0
scalar ws15_network.node[2].content_store 	decision_no[2] 	0
scalar ws15_network.node[2].content_store 	decision_ratio[2] 	0
scalar ws15_network.node[3].core_layer 	interests[3] 	123533
scalar ws15_network.node[3].core_layer 	data[3] 	111246
scalar ws15_network.node[3].content_store 	p_hit[3] 	0.099398541280468
scalar ws15_network.node[3].content_store 	hits[3] 	12279
scalar ws15_network.node[3].content_store 	misses[3] 	111254
scalar ws15_network.node[3].content_store 	decision_yes[3] 	1107
scalar ws15_network.node[3].content_store 	decision_no[3] 	110139
scalar ws15_network.node[3].content_store 	decision_ratio[3] 	0.0099509195836255
scalar ws15_network.node[4].core_layer 	interests[4] 	0
scalar ws15_network.node[4].core_layer 	data[4] 	0
scalar ws15_network.node[4].content_store 	p_hit[4] 	-nan
scalar ws15_network.node[4].content_store 	hits[4] 	0
scalar ws15_network.node[4].content_store 	misses[4] 	0
scalar ws15_network.node[4].content_store 	decision_yes[4] 	0
scalar ws15_network.node[4].content_store 	decision_no[4] 	0
scalar ws15_network.node[4].content_store 	decision_ratio[4] 	0
scalar ws15_network.node[5].core_layer 	interests[5] 	114806
scalar ws15_network.node[5].core_layer 	repo_load[5] 	102735
scalar ws15_network.node[5].core_layer 	data[5] 	0
scalar ws15_network.node[5].content_store 	p_hit[5] 	0.10514258836646
scalar ws15_network.node[5].content_store 	hits[5] 	12071
scalar ws15_network.node[5].content_store 	misses[5] 	102735
scalar ws15_network.node[5].content_store 	decision_yes[5] 	1011
scalar ws15_network.node[5].content_store 	decision_no[5] 	101724
scalar ws15_network.node[5].content_store 	decision_ratio[5] 	0.0098408526792232
scalar ws15_network.node[6].core_layer 	interests[6] 	0
scalar ws15_network.node[6].core_layer 	data[6] 	0
scalar ws15_network.node[6].content_store 	p_hit[6] 	-nan
scalar ws15_network.node[6].content_store 	hits[6] 	0
scalar ws15_network.node[6].content_store 	misses[6] 	0
scalar ws15_network.node[6].content_store 	decision_yes[6] 	0
scalar ws15_network.node[6].content_store 	decision_no[6] 	0
scalar ws15_network.node[6].content_store 	decision_ratio[6] 	0
scalar ws15_network.node[7].core_layer 	interests[7] 	0
scalar ws15_network.node[7].core_layer 	data[7] 	0
scalar ws15_network.node[7].content_store 	p_hit[7] 	-nan
scalar ws15_network.node[7].content_store 	hits[7] 	0
scalar ws15_network.node[7].content_store 	misses[7] 	0
scalar ws15_network.node[7].content_store 	decision_yes[7] 	0
scalar ws15_network.node[7].content_store 	decision_no[7] 	0
scalar ws15_network.node[7].content_store 	decision_ratio[7] 	0
scalar ws15_network.node[8].core_layer 	interests[8] 	150854
scalar ws15_network.node[8].core_layer 	repo_load[8] 	101467
scalar ws15_network.node[8].core_layer 	data[8] 	37111
scalar ws15_network.node[8].content_store 	p_hit[8] 	0.08137669534782
scalar ws15_network.node[8].content_store 	hits[8] 	12276
scalar ws15_network.node[8].content_store 	misses[8] 	138578
scalar ws15_network.node[8].content_store 	decision_yes[8] 	1397
scalar ws15_network.node[8].content_store 	decision_no[8] 	137181
scalar ws15_network.node[8].content_store 	decision_ratio[8] 	0.010080965232577
scalar ws15_network.node[9].core_layer 	interests[9] 	37111
scalar ws15_network.node[9].core_layer 	data[9] 	33336
scalar ws15_network.node[9].content_store 	p_hit[9] 	0.1017218614427
scalar ws15_network.node[9].content_store 	hits[9] 	3775
scalar ws15_network.node[9].content_store 	misses[9] 	33336
scalar ws15_network.node[9].content_store 	decision_yes[9] 	349
scalar ws15_network.node[9].content_store 	decision_no[9] 	32987
scalar ws15_network.node[9].content_store 	decision_ratio[9] 	0.010469162467003
scalar ws15_network.node[10].core_layer 	interests[10] 	0
scalar ws15_network.node[10].core_layer 	data[10] 	0
scalar ws15_network.node[10].content_store 	p_hit[10] 	-nan
scalar ws15_network.node[10].content_store 	hits[10] 	0
scalar ws15_network.node[10].content_store 	misses[10] 	0
scalar ws15_network.node[10].content_store 	decision_yes[10] 	0
scalar ws15_network.node[10].content_store 	decision_no[10] 	0
scalar ws15_network.node[10].content_store 	decision_ratio[10] 	0
scalar ws15_network.node[11].core_layer 	interests[11] 	179915
scalar ws15_network.node[11].core_layer 	data[11] 	119580
scalar ws15_network.node[11].content_store 	p_hit[11] 	0.33525275824695
scalar ws15_network.node[11].content_store 	hits[11] 	60317
scalar ws15_network.node[11].content_store 	misses[11] 	119598
scalar ws15_network.node[11].content_store 	decision_yes[11] 	1264
scalar ws15_network.node[11].content_store 	decision_no[11] 	118316
scalar ws15_network.node[11].content_store 	decision_ratio[11] 	0.010570329486536
scalar ws15_network.node[12].core_layer 	interests[12] 	39297
scalar ws15_network.node[12].core_layer 	data[12] 	34405
scalar ws15_network.node[12].content_store 	p_hit[12] 	0.12446242715729
scalar ws15_network.node[12].content_store 	hits[12] 	4891
scalar ws15_network.node[12].content_store 	misses[12] 	34406
scalar ws15_network.node[12].content_store 	decision_yes[12] 	364
scalar ws15_network.node[12].content_store 	decision_no[12] 	34041
scalar ws15_network.node[12].content_store 	decision_ratio[12] 	0.01057985757884
scalar ws15_network.node[13].core_layer 	interests[13] 	0
scalar ws15_network.node[13].core_layer 	data[13] 	0
scalar ws15_network.node[13].content_store 	p_hit[13] 	-nan
scalar ws15_network.node[13].content_store 	hits[13] 	0
scalar ws15_network.node[13].content_store 	misses[13] 	0
scalar ws15_network.node[13].content_store 	decision_yes[13] 	0
scalar ws15_network.node[13].content_store 	decision_no[13] 	0
scalar ws15_network.node[13].content_store 	decision_ratio[13] 	0
scalar ws15_network.node[14].core_layer 	interests[14] 	0
scalar ws15_network.node[14].core_layer 	data[14] 	0
scalar ws15_network.node[14].content_store 	p_hit[14] 	-nan
scalar ws15_network.node[14].content_store 	hits[14] 	0
scalar ws15_network.node[14].content_store 	misses[14] 	0
scalar ws15_network.node[14].content_store 	decision_yes[14] 	0
scalar ws15_network.node[14].content_store 	decision_no[14] 	0
scalar ws15_network.node[14].content_store 	decision_ratio[14] 	0
scalar ws15_network.node[15].core_layer 	interests[15] 	0
scalar ws15_network.node[15].core_layer 	data[15] 	0
scalar ws15_network.node[15].content_store 	p_hit[15] 	-nan
scalar ws15_network.node[15].content_store 	hits[15] 	0
scalar ws15_network.node[15].content_store 	misses[15] 	0
scalar ws15_network.node[15].content_store 	decision_yes[15] 	0
scalar ws15_network.node[15].content_store 	decision_no[15] 	0
scalar ws15_network.node[15].content_store 	decision_ratio[15] 	0
scalar ws15_network.node[16].core_layer 	interests[16] 	0
scalar ws15_network.node[16].core_layer 	data[16] 	0
scalar ws15_network.node[16].content_store 	p_hit[16] 	-nan
scalar ws15_network.node[16].content_store 	hits[16] 	0
scalar ws15_network.node[16].content_store 	misses[16] 	0
scalar ws15_network.node[16].content_store 	decision_yes[16] 	0
scalar ws15_network.node[16].content_store 	decision_no[16] 	0
scalar ws15_network.node[16].content_store 	decision_ratio[16] 	0
scalar ws15_network.node[17].core_layer 	interests[17] 	0
scalar ws15_network.node[17].core_layer 	data[17] 	0
scalar ws15_network.node[17].content_store 	p_hit[17] 	-nan
scalar ws15_network.node[17].content_store 	hits[17] 	0
scalar ws15_network.node[17].content_store 	misses[17] 	0
scalar ws15_network.node[17].content_store 	decision_yes[17] 	0
scalar ws15_network.node[17].content_store 	decision_no[17] 	0
scalar ws15_network.node[17].content_store 	decision_ratio[17] 	0
scalar ws15_network.node[18].core_layer 	interests[18] 	180072
scalar ws15_network.node[18].core_layer 	data[18] 	120763
scalar ws15_network.node[18].content_store 	p_hit[18] 	0.32915722599849
scalar ws15_network.node[18].content_store 	hits[18] 	59272
scalar ws15_network.node[18].content_store 	misses[18] 	120800
scalar ws15_network.node[18].content_store 	decision_yes[18] 	1203
scalar ws15_network.node[18].content_store 	decision_no[18] 	119560
scalar ws15_network.node[18].content_store 	decision_ratio[18] 	0.009961660442354
scalar ws15_network.node[19].core_layer 	interests[19] 	179459
scalar ws15_network.node[19].core_layer 	data[19] 	119643
scalar ws15_network.node[19].content_store 	p_hit[19] 	0.33314573245142
scalar ws15_network.node[19].content_store 	hits[19] 	59786
scalar ws15_network.node[19].content_store 	misses[19] 	119673
scalar ws15_network.node[19].content_store 	decision_yes[19] 	1203
scalar ws15_network.node[19].content_store 	decision_no[19] 	118440
scalar ws15_network.node[19].content_store 	decision_ratio[19] 	0.010054913367268
scalar ws15_network.node[20].core_layer 	interests[20] 	110485
scalar ws15_network.node[20].core_layer 	repo_load[20] 	97775
scalar ws15_network.node[20].core_layer 	data[20] 	0
scalar ws15_network.node[20].content_store 	p_hit[20] 	0.11503824048513
scalar ws15_network.node[20].content_store 	hits[20] 	12710
scalar ws15_network.node[20].content_store 	misses[20] 	97775
scalar ws15_network.node[20].content_store 	decision_yes[20] 	948
scalar ws15_network.node[20].content_store 	decision_no[20] 	96827
scalar ws15_network.node[20].content_store 	decision_ratio[20] 	0.0096957299923293
scalar ws15_network.node[21].core_layer 	interests[21] 	0
scalar ws15_network.node[21].core_layer 	data[21] 	0
scalar ws15_network.node[21].content_store 	p_hit[21] 	-nan
scalar ws15_network.node[21].content_store 	hits[21] 	0
scalar ws15_network.node[21].content_store 	misses[21] 	0
scalar ws15_network.node[21].content_store 	decision_yes[21] 	0
scalar ws15_network.node[21].content_store 	decision_no[21] 	0
scalar ws15_network.node[21].content_store 	decision_ratio[21] 	0
scalar ws15_network.client[11] 	hdistance[11] 	1.4219970316347
scalar ws15_network.client[11] 	downloads[11] 	179897
scalar ws15_network.client[11] 	avg_time[11] 	0.004433676277
scalar ws15_network.client[11] 	interests_sent[11] 	179915
scalar ws15_network.client[18] 	hdistance[18] 	1.6505679451218
scalar ws15_network.client[18] 	downloads[18] 	180035
scalar ws15_network.client[18] 	avg_time[18] 	0.005630229475
scalar ws15_network.client[18] 	interests_sent[18] 	180072
scalar ws15_network.client[19] 	hdistance[19] 	1.8118587296368
scalar ws15_network.client[19] 	downloads[19] 	179429
scalar ws15_network.client[19] 	avg_time[19] 	0.006535953029
scalar ws15_network.client[19] 	interests_sent[19] 	179459
