version 2
run General-0-20141030-18:59:52-4986
attr D fix0.01
attr F spr
attr R lru
attr a 1
attr configname General
attr csize 1e3
attr ctlg 1e5
attr datetime 20141030-18:59:52
attr experiment General
attr inifile omnetpp.ini
attr iterationvars "$rep=5, $lambda=100, $a=1, $ctlg=1e5, $F=spr, $ttl=10, $D=fix0.01, $R=lru, $csize=1e3, $window=60, $variance=0.05, $mytime=1800, $kappa=1, $priceratiovalue=10, $pricebits=0"
attr iterationvars2 "$rep=5, $lambda=100, $a=1, $ctlg=1e5, $F=spr, $ttl=10, $D=fix0.01, $R=lru, $csize=1e3, $window=60, $variance=0.05, $mytime=1800, $kappa=1, $priceratiovalue=10, $pricebits=0, $repetition=0"
attr kappa 1
attr lambda 100
attr measurement "$rep=5, $lambda=100, $a=1, $ctlg=1e5, $F=spr, $ttl=10, $D=fix0.01, $R=lru, $csize=1e3, $window=60, $variance=0.05, $mytime=1800, $kappa=1, $priceratiovalue=10, $pricebits=0"
attr mytime 1800
attr network networks.ws${rep}_network
attr pricebits 0
attr priceratiovalue 10
attr processid 4986
attr rep 5
attr repetition 0
attr replication #0
attr resultdir results
attr runnumber 0
attr seedset 5
attr ttl 10
attr variance 0.05
attr window 60

scalar . 	a 	1
scalar . 	csize 	1e3
scalar . 	ctlg 	1e5
scalar . 	kappa 	1
scalar . 	lambda 	100
scalar . 	mytime 	1800
scalar . 	pricebits 	0
scalar . 	priceratiovalue 	10
scalar . 	rep 	5
scalar . 	ttl 	10
scalar . 	variance 	0.05
scalar . 	window 	60
scalar ws5_network.content_distribution 	repo-0 	9
scalar ws5_network.content_distribution 	repo-1 	14
scalar ws5_network.content_distribution 	repo-2 	5
scalar ws5_network.content_distribution 	client-0 	4
scalar ws5_network.content_distribution 	client-1 	9
scalar ws5_network.content_distribution 	client-2 	0
scalar ws5_network.content_distribution 	repo-0_card 	33098
scalar ws5_network.content_distribution 	repo-0_price 	0
scalar ws5_network.content_distribution 	repo-1_card 	33495
scalar ws5_network.content_distribution 	repo-1_price 	10
scalar ws5_network.content_distribution 	repo-2_card 	33407
scalar ws5_network.content_distribution 	repo-2_price 	1
scalar ws5_network.statistics 	repo_popularity[0] 	0.31037770261398
scalar ws5_network.statistics 	repo_popularity[1] 	0.29913869324176
scalar ws5_network.statistics 	repo_popularity[2] 	0.39048360414427
scalar ws5_network.statistics 	stabilization_time 	36060
scalar ws5_network.statistics 	p_hit 	0.20786147508588
scalar ws5_network.statistics 	interests 	47844.363636364
scalar ws5_network.statistics 	data 	23309.409090909
scalar ws5_network.statistics 	hdistance 	1.5447485401
scalar ws5_network.statistics 	avg_time 	0.004921528132
scalar ws5_network.statistics 	downloads 	539678
scalar ws5_network.statistics 	total_cost 	1101602
scalar ws5_network.statistics 	total_replicas 	100000
scalar ws5_network.statistics 	inner_hit 	0.40549549916802
scalar ws5_network.statistics 	interests_sent 	539769
scalar ws5_network.node[0].core_layer 	interests[0] 	265042
scalar ws5_network.node[0].core_layer 	data[0] 	199841
scalar ws5_network.node[0].core_layer 	repo_int[0] 	320841
scalar ws5_network.node[0].content_store 	p_hit[0] 	0.24577614113989
scalar ws5_network.node[0].content_store 	hits[0] 	65141
scalar ws5_network.node[0].content_store 	misses[0] 	199901
scalar ws5_network.node[0].content_store 	decision_yes[0] 	1987
scalar ws5_network.node[0].content_store 	decision_no[0] 	197854
scalar ws5_network.node[0].content_store 	decision_ratio[0] 	0.0099429046091643
scalar ws5_network.node[1].core_layer 	interests[1] 	0
scalar ws5_network.node[1].core_layer 	data[1] 	0
scalar ws5_network.node[1].content_store 	p_hit[1] 	-nan
scalar ws5_network.node[1].content_store 	hits[1] 	0
scalar ws5_network.node[1].content_store 	misses[1] 	0
scalar ws5_network.node[1].content_store 	decision_yes[1] 	0
scalar ws5_network.node[1].content_store 	decision_no[1] 	0
scalar ws5_network.node[1].content_store 	decision_ratio[1] 	0
scalar ws5_network.node[2].core_layer 	interests[2] 	0
scalar ws5_network.node[2].core_layer 	data[2] 	0
scalar ws5_network.node[2].content_store 	p_hit[2] 	-nan
scalar ws5_network.node[2].content_store 	hits[2] 	0
scalar ws5_network.node[2].content_store 	misses[2] 	0
scalar ws5_network.node[2].content_store 	decision_yes[2] 	0
scalar ws5_network.node[2].content_store 	decision_no[2] 	0
scalar ws5_network.node[2].content_store 	decision_ratio[2] 	0
scalar ws5_network.node[3].core_layer 	interests[3] 	0
scalar ws5_network.node[3].core_layer 	data[3] 	0
scalar ws5_network.node[3].content_store 	p_hit[3] 	-nan
scalar ws5_network.node[3].content_store 	hits[3] 	0
scalar ws5_network.node[3].content_store 	misses[3] 	0
scalar ws5_network.node[3].content_store 	decision_yes[3] 	0
scalar ws5_network.node[3].content_store 	decision_no[3] 	0
scalar ws5_network.node[3].content_store 	decision_ratio[3] 	0
scalar ws5_network.node[4].core_layer 	interests[4] 	179540
scalar ws5_network.node[4].core_layer 	data[4] 	118940
scalar ws5_network.node[4].content_store 	p_hit[4] 	0.33738999665813
scalar ws5_network.node[4].content_store 	hits[4] 	60575
scalar ws5_network.node[4].content_store 	misses[4] 	118965
scalar ws5_network.node[4].content_store 	decision_yes[4] 	1165
scalar ws5_network.node[4].content_store 	decision_no[4] 	117775
scalar ws5_network.node[4].content_store 	decision_ratio[4] 	0.0097948545485119
scalar ws5_network.node[5].core_layer 	interests[5] 	237836
scalar ws5_network.node[5].core_layer 	repo_load[5] 	111302
scalar ws5_network.node[5].core_layer 	data[5] 	108962
scalar ws5_network.node[5].content_store 	p_hit[5] 	0.073836593282766
scalar ws5_network.node[5].content_store 	hits[5] 	17561
scalar ws5_network.node[5].content_store 	misses[5] 	220275
scalar ws5_network.node[5].content_store 	decision_yes[5] 	2223
scalar ws5_network.node[5].content_store 	decision_no[5] 	218041
scalar ws5_network.node[5].content_store 	decision_ratio[5] 	0.010092434533106
scalar ws5_network.node[6].core_layer 	interests[6] 	0
scalar ws5_network.node[6].core_layer 	data[6] 	0
scalar ws5_network.node[6].content_store 	p_hit[6] 	-nan
scalar ws5_network.node[6].content_store 	hits[6] 	0
scalar ws5_network.node[6].content_store 	misses[6] 	0
scalar ws5_network.node[6].content_store 	decision_yes[6] 	0
scalar ws5_network.node[6].content_store 	decision_no[6] 	0
scalar ws5_network.node[6].content_store 	decision_ratio[6] 	0
scalar ws5_network.node[7].core_layer 	interests[7] 	0
scalar ws5_network.node[7].core_layer 	data[7] 	0
scalar ws5_network.node[7].content_store 	p_hit[7] 	-nan
scalar ws5_network.node[7].content_store 	hits[7] 	0
scalar ws5_network.node[7].content_store 	misses[7] 	0
scalar ws5_network.node[7].content_store 	decision_yes[7] 	0
scalar ws5_network.node[7].content_store 	decision_no[7] 	0
scalar ws5_network.node[7].content_store 	decision_ratio[7] 	0
scalar ws5_network.node[8].core_layer 	interests[8] 	0
scalar ws5_network.node[8].core_layer 	data[8] 	0
scalar ws5_network.node[8].content_store 	p_hit[8] 	-nan
scalar ws5_network.node[8].content_store 	hits[8] 	0
scalar ws5_network.node[8].content_store 	misses[8] 	0
scalar ws5_network.node[8].content_store 	decision_yes[8] 	0
scalar ws5_network.node[8].content_store 	decision_no[8] 	0
scalar ws5_network.node[8].content_store 	decision_ratio[8] 	0
scalar ws5_network.node[9].core_layer 	interests[9] 	261196
scalar ws5_network.node[9].core_layer 	repo_load[9] 	110509
scalar ws5_network.node[9].core_layer 	data[9] 	85064
scalar ws5_network.node[9].content_store 	p_hit[9] 	0.25107964899922
scalar ws5_network.node[9].content_store 	hits[9] 	65581
scalar ws5_network.node[9].content_store 	misses[9] 	195615
scalar ws5_network.node[9].content_store 	decision_yes[9] 	1945
scalar ws5_network.node[9].content_store 	decision_no[9] 	193628
scalar ws5_network.node[9].content_store 	decision_ratio[9] 	0.0099451355759742
scalar ws5_network.node[10].core_layer 	interests[10] 	0
scalar ws5_network.node[10].core_layer 	data[10] 	0
scalar ws5_network.node[10].content_store 	p_hit[10] 	-nan
scalar ws5_network.node[10].content_store 	hits[10] 	0
scalar ws5_network.node[10].content_store 	misses[10] 	0
scalar ws5_network.node[10].content_store 	decision_yes[10] 	0
scalar ws5_network.node[10].content_store 	decision_no[10] 	0
scalar ws5_network.node[10].content_store 	decision_ratio[10] 	0
scalar ws5_network.node[11].core_layer 	interests[11] 	0
scalar ws5_network.node[11].core_layer 	data[11] 	0
scalar ws5_network.node[11].content_store 	p_hit[11] 	-nan
scalar ws5_network.node[11].content_store 	hits[11] 	0
scalar ws5_network.node[11].content_store 	misses[11] 	0
scalar ws5_network.node[11].content_store 	decision_yes[11] 	0
scalar ws5_network.node[11].content_store 	decision_no[11] 	0
scalar ws5_network.node[11].content_store 	decision_ratio[11] 	0
scalar ws5_network.node[12].core_layer 	interests[12] 	0
scalar ws5_network.node[12].core_layer 	data[12] 	0
scalar ws5_network.node[12].content_store 	p_hit[12] 	-nan
scalar ws5_network.node[12].content_store 	hits[12] 	0
scalar ws5_network.node[12].content_store 	misses[12] 	0
scalar ws5_network.node[12].content_store 	decision_yes[12] 	0
scalar ws5_network.node[12].content_store 	decision_no[12] 	0
scalar ws5_network.node[12].content_store 	decision_ratio[12] 	0
scalar ws5_network.node[13].core_layer 	interests[13] 	0
scalar ws5_network.node[13].core_layer 	data[13] 	0
scalar ws5_network.node[13].content_store 	p_hit[13] 	-nan
scalar ws5_network.node[13].content_store 	hits[13] 	0
scalar ws5_network.node[13].content_store 	misses[13] 	0
scalar ws5_network.node[13].content_store 	decision_yes[13] 	0
scalar ws5_network.node[13].content_store 	decision_no[13] 	0
scalar ws5_network.node[13].content_store 	decision_ratio[13] 	0
scalar ws5_network.node[14].core_layer 	interests[14] 	108962
scalar ws5_network.node[14].core_layer 	repo_load[14] 	99030
scalar ws5_network.node[14].core_layer 	data[14] 	0
scalar ws5_network.node[14].content_store 	p_hit[14] 	0.091151043483049
scalar ws5_network.node[14].content_store 	hits[14] 	9932
scalar ws5_network.node[14].content_store 	misses[14] 	99030
scalar ws5_network.node[14].content_store 	decision_yes[14] 	1003
scalar ws5_network.node[14].content_store 	decision_no[14] 	98027
scalar ws5_network.node[14].content_store 	decision_ratio[14] 	0.010128243966475
scalar ws5_network.node[15].core_layer 	interests[15] 	0
scalar ws5_network.node[15].core_layer 	data[15] 	0
scalar ws5_network.node[15].content_store 	p_hit[15] 	-nan
scalar ws5_network.node[15].content_store 	hits[15] 	0
scalar ws5_network.node[15].content_store 	misses[15] 	0
scalar ws5_network.node[15].content_store 	decision_yes[15] 	0
scalar ws5_network.node[15].content_store 	decision_no[15] 	0
scalar ws5_network.node[15].content_store 	decision_ratio[15] 	0
scalar ws5_network.node[16].core_layer 	interests[16] 	0
scalar ws5_network.node[16].core_layer 	data[16] 	0
scalar ws5_network.node[16].content_store 	p_hit[16] 	-nan
scalar ws5_network.node[16].content_store 	hits[16] 	0
scalar ws5_network.node[16].content_store 	misses[16] 	0
scalar ws5_network.node[16].content_store 	decision_yes[16] 	0
scalar ws5_network.node[16].content_store 	decision_no[16] 	0
scalar ws5_network.node[16].content_store 	decision_ratio[16] 	0
scalar ws5_network.node[17].core_layer 	interests[17] 	0
scalar ws5_network.node[17].core_layer 	data[17] 	0
scalar ws5_network.node[17].content_store 	p_hit[17] 	-nan
scalar ws5_network.node[17].content_store 	hits[17] 	0
scalar ws5_network.node[17].content_store 	misses[17] 	0
scalar ws5_network.node[17].content_store 	decision_yes[17] 	0
scalar ws5_network.node[17].content_store 	decision_no[17] 	0
scalar ws5_network.node[17].content_store 	decision_ratio[17] 	0
scalar ws5_network.node[18].core_layer 	interests[18] 	0
scalar ws5_network.node[18].core_layer 	data[18] 	0
scalar ws5_network.node[18].content_store 	p_hit[18] 	-nan
scalar ws5_network.node[18].content_store 	hits[18] 	0
scalar ws5_network.node[18].content_store 	misses[18] 	0
scalar ws5_network.node[18].content_store 	decision_yes[18] 	0
scalar ws5_network.node[18].content_store 	decision_no[18] 	0
scalar ws5_network.node[18].content_store 	decision_ratio[18] 	0
scalar ws5_network.node[19].core_layer 	interests[19] 	0
scalar ws5_network.node[19].core_layer 	data[19] 	0
scalar ws5_network.node[19].content_store 	p_hit[19] 	-nan
scalar ws5_network.node[19].content_store 	hits[19] 	0
scalar ws5_network.node[19].content_store 	misses[19] 	0
scalar ws5_network.node[19].content_store 	decision_yes[19] 	0
scalar ws5_network.node[19].content_store 	decision_no[19] 	0
scalar ws5_network.node[19].content_store 	decision_ratio[19] 	0
scalar ws5_network.node[20].core_layer 	interests[20] 	0
scalar ws5_network.node[20].core_layer 	data[20] 	0
scalar ws5_network.node[20].content_store 	p_hit[20] 	-nan
scalar ws5_network.node[20].content_store 	hits[20] 	0
scalar ws5_network.node[20].content_store 	misses[20] 	0
scalar ws5_network.node[20].content_store 	decision_yes[20] 	0
scalar ws5_network.node[20].content_store 	decision_no[20] 	0
scalar ws5_network.node[20].content_store 	decision_ratio[20] 	0
scalar ws5_network.node[21].core_layer 	interests[21] 	0
scalar ws5_network.node[21].core_layer 	data[21] 	0
scalar ws5_network.node[21].content_store 	p_hit[21] 	-nan
scalar ws5_network.node[21].content_store 	hits[21] 	0
scalar ws5_network.node[21].content_store 	misses[21] 	0
scalar ws5_network.node[21].content_store 	decision_yes[21] 	0
scalar ws5_network.node[21].content_store 	decision_no[21] 	0
scalar ws5_network.node[21].content_store 	decision_ratio[21] 	0
scalar ws5_network.client[0] 	hdistance[0] 	1.4751132227501
scalar ws5_network.client[0] 	downloads[0] 	179955
scalar ws5_network.client[0] 	avg_time[0] 	0.00455983908
scalar ws5_network.client[0] 	interests_sent[0] 	179979
scalar ws5_network.client[4] 	hdistance[4] 	1.4587750327271
scalar ws5_network.client[4] 	downloads[4] 	179515
scalar ws5_network.client[4] 	avg_time[4] 	0.004483127275
scalar ws5_network.client[4] 	interests_sent[4] 	179540
scalar ws5_network.client[9] 	hdistance[9] 	1.7003573648229
scalar ws5_network.client[9] 	downloads[9] 	180208
scalar ws5_network.client[9] 	avg_time[9] 	0.005721618043
scalar ws5_network.client[9] 	interests_sent[9] 	180250
