version 2
run General-4-20141031-11:24:45-25688
attr D fix0.01
attr F spr
attr R lru
attr a 1
attr configname General
attr csize 1e3
attr ctlg 1e5
attr datetime 20141031-11:24:45
attr experiment General
attr inifile omnetpp.ini
attr iterationvars "$rep=16, $lambda=100, $a=1, $ctlg=1e5, $F=spr, $ttl=10, $D=fix0.01, $R=lru, $csize=1e3, $window=60, $variance=0.05, $mytime=1800, $kappa=1, $priceratiovalue=10, $pricebits=0"
attr iterationvars2 "$rep=16, $lambda=100, $a=1, $ctlg=1e5, $F=spr, $ttl=10, $D=fix0.01, $R=lru, $csize=1e3, $window=60, $variance=0.05, $mytime=1800, $kappa=1, $priceratiovalue=10, $pricebits=0, $repetition=0"
attr kappa 1
attr lambda 100
attr measurement "$rep=16, $lambda=100, $a=1, $ctlg=1e5, $F=spr, $ttl=10, $D=fix0.01, $R=lru, $csize=1e3, $window=60, $variance=0.05, $mytime=1800, $kappa=1, $priceratiovalue=10, $pricebits=0"
attr mytime 1800
attr network networks.ws${rep}_network
attr pricebits 0
attr priceratiovalue 10
attr processid 25688
attr rep 16
attr repetition 0
attr replication #0
attr resultdir results
attr runnumber 4
attr seedset 16
attr ttl 10
attr variance 0.05
attr window 60

scalar . 	a 	1
scalar . 	csize 	1e3
scalar . 	ctlg 	1e5
scalar . 	kappa 	1
scalar . 	lambda 	100
scalar . 	mytime 	1800
scalar . 	pricebits 	0
scalar . 	priceratiovalue 	10
scalar . 	rep 	16
scalar . 	ttl 	10
scalar . 	variance 	0.05
scalar . 	window 	60
scalar ws16_network.content_distribution 	repo-0 	10
scalar ws16_network.content_distribution 	repo-1 	13
scalar ws16_network.content_distribution 	repo-2 	8
scalar ws16_network.content_distribution 	client-0 	20
scalar ws16_network.content_distribution 	client-1 	18
scalar ws16_network.content_distribution 	client-2 	12
scalar ws16_network.content_distribution 	repo-0_card 	33301
scalar ws16_network.content_distribution 	repo-0_price 	10
scalar ws16_network.content_distribution 	repo-1_card 	33210
scalar ws16_network.content_distribution 	repo-1_price 	1
scalar ws16_network.content_distribution 	repo-2_card 	33489
scalar ws16_network.content_distribution 	repo-2_price 	0
scalar ws16_network.statistics 	repo_popularity[0] 	0.32646379131244
scalar ws16_network.statistics 	repo_popularity[1] 	0.28759362553521
scalar ws16_network.statistics 	repo_popularity[2] 	0.38594258315236
scalar ws16_network.statistics 	stabilization_time 	36060
scalar ws16_network.statistics 	p_hit 	0.17564174413347
scalar ws16_network.statistics 	interests 	62128.272727273
scalar ws16_network.statistics 	data 	37626.181818182
scalar ws16_network.statistics 	hdistance 	2.0904274841582
scalar ws16_network.statistics 	avg_time 	0.007955237519
scalar ws16_network.statistics 	downloads 	538898
scalar ws16_network.statistics 	total_cost 	1080697
scalar ws16_network.statistics 	total_replicas 	100000
scalar ws16_network.statistics 	inner_hit 	0.44550360179477
scalar ws16_network.statistics 	interests_sent 	539045
scalar ws16_network.node[0].core_layer 	interests[0] 	194219
scalar ws16_network.node[0].core_layer 	data[0] 	183769
scalar ws16_network.node[0].core_layer 	repo_int[0] 	298817
scalar ws16_network.node[0].content_store 	p_hit[0] 	0.053764049861239
scalar ws16_network.node[0].content_store 	hits[0] 	10442
scalar ws16_network.node[0].content_store 	misses[0] 	183777
scalar ws16_network.node[0].content_store 	decision_yes[0] 	1815
scalar ws16_network.node[0].content_store 	decision_no[0] 	181954
scalar ws16_network.node[0].content_store 	decision_ratio[0] 	0.0098765297737921
scalar ws16_network.node[1].core_layer 	interests[1] 	0
scalar ws16_network.node[1].core_layer 	data[1] 	0
scalar ws16_network.node[1].content_store 	p_hit[1] 	-nan
scalar ws16_network.node[1].content_store 	hits[1] 	0
scalar ws16_network.node[1].content_store 	misses[1] 	0
scalar ws16_network.node[1].content_store 	decision_yes[1] 	0
scalar ws16_network.node[1].content_store 	decision_no[1] 	0
scalar ws16_network.node[1].content_store 	decision_ratio[1] 	0
scalar ws16_network.node[2].core_layer 	interests[2] 	40782
scalar ws16_network.node[2].core_layer 	data[2] 	34959
scalar ws16_network.node[2].content_store 	p_hit[2] 	0.14278358099161
scalar ws16_network.node[2].content_store 	hits[2] 	5823
scalar ws16_network.node[2].content_store 	misses[2] 	34959
scalar ws16_network.node[2].content_store 	decision_yes[2] 	327
scalar ws16_network.node[2].content_store 	decision_no[2] 	34632
scalar ws16_network.node[2].content_store 	decision_ratio[2] 	0.0093538144683772
scalar ws16_network.node[3].core_layer 	interests[3] 	0
scalar ws16_network.node[3].core_layer 	data[3] 	0
scalar ws16_network.node[3].content_store 	p_hit[3] 	-nan
scalar ws16_network.node[3].content_store 	hits[3] 	0
scalar ws16_network.node[3].content_store 	misses[3] 	0
scalar ws16_network.node[3].content_store 	decision_yes[3] 	0
scalar ws16_network.node[3].content_store 	decision_no[3] 	0
scalar ws16_network.node[3].content_store 	decision_ratio[3] 	0
scalar ws16_network.node[4].core_layer 	interests[4] 	0
scalar ws16_network.node[4].core_layer 	data[4] 	0
scalar ws16_network.node[4].content_store 	p_hit[4] 	-nan
scalar ws16_network.node[4].content_store 	hits[4] 	0
scalar ws16_network.node[4].content_store 	misses[4] 	0
scalar ws16_network.node[4].content_store 	decision_yes[4] 	0
scalar ws16_network.node[4].content_store 	decision_no[4] 	0
scalar ws16_network.node[4].content_store 	decision_ratio[4] 	0
scalar ws16_network.node[5].core_layer 	interests[5] 	0
scalar ws16_network.node[5].core_layer 	data[5] 	0
scalar ws16_network.node[5].content_store 	p_hit[5] 	-nan
scalar ws16_network.node[5].content_store 	hits[5] 	0
scalar ws16_network.node[5].content_store 	misses[5] 	0
scalar ws16_network.node[5].content_store 	decision_yes[5] 	0
scalar ws16_network.node[5].content_store 	decision_no[5] 	0
scalar ws16_network.node[5].content_store 	decision_ratio[5] 	0
scalar ws16_network.node[6].core_layer 	interests[6] 	0
scalar ws16_network.node[6].core_layer 	data[6] 	0
scalar ws16_network.node[6].content_store 	p_hit[6] 	-nan
scalar ws16_network.node[6].content_store 	hits[6] 	0
scalar ws16_network.node[6].content_store 	misses[6] 	0
scalar ws16_network.node[6].content_store 	decision_yes[6] 	0
scalar ws16_network.node[6].content_store 	decision_no[6] 	0
scalar ws16_network.node[6].content_store 	decision_ratio[6] 	0
scalar ws16_network.node[7].core_layer 	interests[7] 	0
scalar ws16_network.node[7].core_layer 	data[7] 	0
scalar ws16_network.node[7].content_store 	p_hit[7] 	-nan
scalar ws16_network.node[7].content_store 	hits[7] 	0
scalar ws16_network.node[7].content_store 	misses[7] 	0
scalar ws16_network.node[7].content_store 	decision_yes[7] 	0
scalar ws16_network.node[7].content_store 	decision_no[7] 	0
scalar ws16_network.node[7].content_store 	decision_ratio[7] 	0
scalar ws16_network.node[8].core_layer 	interests[8] 	108822
scalar ws16_network.node[8].core_layer 	repo_load[8] 	99247
scalar ws16_network.node[8].core_layer 	data[8] 	0
scalar ws16_network.node[8].content_store 	p_hit[8] 	0.087987723070703
scalar ws16_network.node[8].content_store 	hits[8] 	9575
scalar ws16_network.node[8].content_store 	misses[8] 	99247
scalar ws16_network.node[8].content_store 	decision_yes[8] 	983
scalar ws16_network.node[8].content_store 	decision_no[8] 	98264
scalar ws16_network.node[8].content_store 	decision_ratio[8] 	0.0099045814986851
scalar ws16_network.node[9].core_layer 	interests[9] 	39641
scalar ws16_network.node[9].core_layer 	data[9] 	33809
scalar ws16_network.node[9].content_store 	p_hit[9] 	0.14712040564062
scalar ws16_network.node[9].content_store 	hits[9] 	5832
scalar ws16_network.node[9].content_store 	misses[9] 	33809
scalar ws16_network.node[9].content_store 	decision_yes[9] 	339
scalar ws16_network.node[9].content_store 	decision_no[9] 	33470
scalar ws16_network.node[9].content_store 	decision_ratio[9] 	0.010026915909965
scalar ws16_network.node[10].core_layer 	interests[10] 	105610
scalar ws16_network.node[10].core_layer 	repo_load[10] 	97903
scalar ws16_network.node[10].core_layer 	data[10] 	0
scalar ws16_network.node[10].content_store 	p_hit[10] 	0.072976043935233
scalar ws16_network.node[10].content_store 	hits[10] 	7707
scalar ws16_network.node[10].content_store 	misses[10] 	97903
scalar ws16_network.node[10].content_store 	decision_yes[10] 	949
scalar ws16_network.node[10].content_store 	decision_no[10] 	96954
scalar ws16_network.node[10].content_store 	decision_ratio[10] 	0.0096932678263179
scalar ws16_network.node[11].core_layer 	interests[11] 	0
scalar ws16_network.node[11].core_layer 	data[11] 	0
scalar ws16_network.node[11].content_store 	p_hit[11] 	-nan
scalar ws16_network.node[11].content_store 	hits[11] 	0
scalar ws16_network.node[11].content_store 	misses[11] 	0
scalar ws16_network.node[11].content_store 	decision_yes[11] 	0
scalar ws16_network.node[11].content_store 	decision_no[11] 	0
scalar ws16_network.node[11].content_store 	decision_ratio[11] 	0
scalar ws16_network.node[12].core_layer 	interests[12] 	179453
scalar ws16_network.node[12].core_layer 	data[12] 	119287
scalar ws16_network.node[12].content_store 	p_hit[12] 	0.33501808272918
scalar ws16_network.node[12].content_store 	hits[12] 	60120
scalar ws16_network.node[12].content_store 	misses[12] 	119333
scalar ws16_network.node[12].content_store 	decision_yes[12] 	1181
scalar ws16_network.node[12].content_store 	decision_no[12] 	118106
scalar ws16_network.node[12].content_store 	decision_ratio[12] 	0.0099004920905044
scalar ws16_network.node[13].core_layer 	interests[13] 	146722
scalar ws16_network.node[13].core_layer 	repo_load[13] 	101667
scalar ws16_network.node[13].core_layer 	data[13] 	37105
scalar ws16_network.node[13].content_store 	p_hit[13] 	0.05418410327013
scalar ws16_network.node[13].content_store 	hits[13] 	7950
scalar ws16_network.node[13].content_store 	misses[13] 	138772
scalar ws16_network.node[13].content_store 	decision_yes[13] 	1338
scalar ws16_network.node[13].content_store 	decision_no[13] 	137434
scalar ws16_network.node[13].content_store 	decision_ratio[13] 	0.0096417144668953
scalar ws16_network.node[14].core_layer 	interests[14] 	112314
scalar ws16_network.node[14].core_layer 	data[14] 	105321
scalar ws16_network.node[14].content_store 	p_hit[14] 	0.062245134177396
scalar ws16_network.node[14].content_store 	hits[14] 	6991
scalar ws16_network.node[14].content_store 	misses[14] 	105323
scalar ws16_network.node[14].content_store 	decision_yes[14] 	1090
scalar ws16_network.node[14].content_store 	decision_no[14] 	104231
scalar ws16_network.node[14].content_store 	decision_ratio[14] 	0.010349313052478
scalar ws16_network.node[15].core_layer 	interests[15] 	0
scalar ws16_network.node[15].core_layer 	data[15] 	0
scalar ws16_network.node[15].content_store 	p_hit[15] 	-nan
scalar ws16_network.node[15].content_store 	hits[15] 	0
scalar ws16_network.node[15].content_store 	misses[15] 	0
scalar ws16_network.node[15].content_store 	decision_yes[15] 	0
scalar ws16_network.node[15].content_store 	decision_no[15] 	0
scalar ws16_network.node[15].content_store 	decision_ratio[15] 	0
scalar ws16_network.node[16].core_layer 	interests[16] 	79667
scalar ws16_network.node[16].core_layer 	data[16] 	73991
scalar ws16_network.node[16].content_store 	p_hit[16] 	0.071234011573173
scalar ws16_network.node[16].content_store 	hits[16] 	5675
scalar ws16_network.node[16].content_store 	misses[16] 	73992
scalar ws16_network.node[16].content_store 	decision_yes[16] 	759
scalar ws16_network.node[16].content_store 	decision_no[16] 	73232
scalar ws16_network.node[16].content_store 	decision_ratio[16] 	0.010258004351881
scalar ws16_network.node[17].core_layer 	interests[17] 	0
scalar ws16_network.node[17].core_layer 	data[17] 	0
scalar ws16_network.node[17].content_store 	p_hit[17] 	-nan
scalar ws16_network.node[17].content_store 	hits[17] 	0
scalar ws16_network.node[17].content_store 	misses[17] 	0
scalar ws16_network.node[17].content_store 	decision_yes[17] 	0
scalar ws16_network.node[17].content_store 	decision_no[17] 	0
scalar ws16_network.node[17].content_store 	decision_ratio[17] 	0
scalar ws16_network.node[18].core_layer 	interests[18] 	179759
scalar ws16_network.node[18].core_layer 	data[18] 	119307
scalar ws16_network.node[18].content_store 	p_hit[18] 	0.3360554965259
scalar ws16_network.node[18].content_store 	hits[18] 	60409
scalar ws16_network.node[18].content_store 	misses[18] 	119350
scalar ws16_network.node[18].content_store 	decision_yes[18] 	1204
scalar ws16_network.node[18].content_store 	decision_no[18] 	118103
scalar ws16_network.node[18].content_store 	decision_ratio[18] 	0.010091612394914
scalar ws16_network.node[19].core_layer 	interests[19] 	0
scalar ws16_network.node[19].core_layer 	data[19] 	0
scalar ws16_network.node[19].content_store 	p_hit[19] 	-nan
scalar ws16_network.node[19].content_store 	hits[19] 	0
scalar ws16_network.node[19].content_store 	misses[19] 	0
scalar ws16_network.node[19].content_store 	decision_yes[19] 	0
scalar ws16_network.node[19].content_store 	decision_no[19] 	0
scalar ws16_network.node[19].content_store 	decision_ratio[19] 	0
scalar ws16_network.node[20].core_layer 	interests[20] 	179833
scalar ws16_network.node[20].core_layer 	data[20] 	120228
scalar ws16_network.node[20].content_store 	p_hit[20] 	0.33112387604055
scalar ws16_network.node[20].content_store 	hits[20] 	59547
scalar ws16_network.node[20].content_store 	misses[20] 	120286
scalar ws16_network.node[20].content_store 	decision_yes[20] 	1186
scalar ws16_network.node[20].content_store 	decision_no[20] 	119042
scalar ws16_network.node[20].content_store 	decision_ratio[20] 	0.0098645906111721
scalar ws16_network.node[21].core_layer 	interests[21] 	0
scalar ws16_network.node[21].core_layer 	data[21] 	0
scalar ws16_network.node[21].content_store 	p_hit[21] 	-nan
scalar ws16_network.node[21].content_store 	hits[21] 	0
scalar ws16_network.node[21].content_store 	misses[21] 	0
scalar ws16_network.node[21].content_store 	decision_yes[21] 	0
scalar ws16_network.node[21].content_store 	decision_no[21] 	0
scalar ws16_network.node[21].content_store 	decision_ratio[21] 	0
scalar ws16_network.client[12] 	hdistance[12] 	1.8233680960052
scalar ws16_network.client[12] 	downloads[12] 	179407
scalar ws16_network.client[12] 	avg_time[12] 	0.006561638654
scalar ws16_network.client[12] 	interests_sent[12] 	179453
scalar ws16_network.client[18] 	hdistance[18] 	2.3695497340247
scalar ws16_network.client[18] 	downloads[18] 	179716
scalar ws16_network.client[18] 	avg_time[18] 	0.009498885367
scalar ws16_network.client[18] 	interests_sent[18] 	179759
scalar ws16_network.client[20] 	hdistance[20] 	2.0783646224447
scalar ws16_network.client[20] 	downloads[20] 	179775
scalar ws16_network.client[20] 	avg_time[20] 	0.007805188537
scalar ws16_network.client[20] 	interests_sent[20] 	179833
