version 2
run General-12-20141030-18:43:15-30806
attr D fix0.01
attr F spr
attr R lru
attr a 1
attr configname General
attr csize 1e3
attr ctlg 1e5
attr datetime 20141030-18:43:15
attr experiment General
attr inifile omnetpp.ini
attr iterationvars "$rep=12, $lambda=100, $a=1, $ctlg=1e5, $F=spr, $ttl=10, $D=fix0.01, $R=lru, $csize=1e3, $window=60, $variance=0.05, $mytime=1800, $kappa=1, $priceratiovalue=10, $pricebits=0"
attr iterationvars2 "$rep=12, $lambda=100, $a=1, $ctlg=1e5, $F=spr, $ttl=10, $D=fix0.01, $R=lru, $csize=1e3, $window=60, $variance=0.05, $mytime=1800, $kappa=1, $priceratiovalue=10, $pricebits=0, $repetition=0"
attr kappa 1
attr lambda 100
attr measurement "$rep=12, $lambda=100, $a=1, $ctlg=1e5, $F=spr, $ttl=10, $D=fix0.01, $R=lru, $csize=1e3, $window=60, $variance=0.05, $mytime=1800, $kappa=1, $priceratiovalue=10, $pricebits=0"
attr mytime 1800
attr network networks.ws${rep}_network
attr pricebits 0
attr priceratiovalue 10
attr processid 30806
attr rep 12
attr repetition 0
attr replication #0
attr resultdir results
attr runnumber 12
attr seedset 12
attr ttl 10
attr variance 0.05
attr window 60

scalar . 	a 	1
scalar . 	csize 	1e3
scalar . 	ctlg 	1e5
scalar . 	kappa 	1
scalar . 	lambda 	100
scalar . 	mytime 	1800
scalar . 	pricebits 	0
scalar . 	priceratiovalue 	10
scalar . 	rep 	12
scalar . 	ttl 	10
scalar . 	variance 	0.05
scalar . 	window 	60
scalar ws12_network.content_distribution 	repo-0 	15
scalar ws12_network.content_distribution 	repo-1 	11
scalar ws12_network.content_distribution 	repo-2 	12
scalar ws12_network.content_distribution 	client-0 	21
scalar ws12_network.content_distribution 	client-1 	3
scalar ws12_network.content_distribution 	client-2 	10
scalar ws12_network.content_distribution 	repo-0_card 	33377
scalar ws12_network.content_distribution 	repo-0_price 	1
scalar ws12_network.content_distribution 	repo-1_card 	33438
scalar ws12_network.content_distribution 	repo-1_price 	10
scalar ws12_network.content_distribution 	repo-2_card 	33185
scalar ws12_network.content_distribution 	repo-2_price 	0
scalar ws12_network.statistics 	repo_popularity[0] 	0.39206413854294
scalar ws12_network.statistics 	repo_popularity[1] 	0.32380036391025
scalar ws12_network.statistics 	repo_popularity[2] 	0.28413549754682
scalar ws12_network.statistics 	stabilization_time 	36060
scalar ws12_network.statistics 	p_hit 	0.19243267068144
scalar ws12_network.statistics 	interests 	58163.909090909
scalar ws12_network.statistics 	data 	33628.954545455
scalar ws12_network.statistics 	hdistance 	1.9149440550163
scalar ws12_network.statistics 	avg_time 	0.007102670935
scalar ws12_network.statistics 	downloads 	539669
scalar ws12_network.statistics 	total_cost 	1087990
scalar ws12_network.statistics 	total_replicas 	100000
scalar ws12_network.statistics 	inner_hit 	0.45628709449681
scalar ws12_network.statistics 	interests_sent 	539769
scalar ws12_network.node[0].core_layer 	interests[0] 	0
scalar ws12_network.node[0].core_layer 	data[0] 	0
scalar ws12_network.node[0].core_layer 	repo_int[0] 	293425
scalar ws12_network.node[0].content_store 	p_hit[0] 	-nan
scalar ws12_network.node[0].content_store 	hits[0] 	0
scalar ws12_network.node[0].content_store 	misses[0] 	0
scalar ws12_network.node[0].content_store 	decision_yes[0] 	0
scalar ws12_network.node[0].content_store 	decision_no[0] 	0
scalar ws12_network.node[0].content_store 	decision_ratio[0] 	0
scalar ws12_network.node[1].core_layer 	interests[1] 	77622
scalar ws12_network.node[1].core_layer 	data[1] 	69952
scalar ws12_network.node[1].content_store 	p_hit[1] 	0.098786426528561
scalar ws12_network.node[1].content_store 	hits[1] 	7668
scalar ws12_network.node[1].content_store 	misses[1] 	69954
scalar ws12_network.node[1].content_store 	decision_yes[1] 	733
scalar ws12_network.node[1].content_store 	decision_no[1] 	69219
scalar ws12_network.node[1].content_store 	decision_ratio[1] 	0.010478613906679
scalar ws12_network.node[2].core_layer 	interests[2] 	42488
scalar ws12_network.node[2].core_layer 	data[2] 	35497
scalar ws12_network.node[2].content_store 	p_hit[2] 	0.16454057616268
scalar ws12_network.node[2].content_store 	hits[2] 	6991
scalar ws12_network.node[2].content_store 	misses[2] 	35497
scalar ws12_network.node[2].content_store 	decision_yes[2] 	380
scalar ws12_network.node[2].content_store 	decision_no[2] 	35117
scalar ws12_network.node[2].content_store 	decision_ratio[2] 	0.010705130010987
scalar ws12_network.node[3].core_layer 	interests[3] 	180202
scalar ws12_network.node[3].core_layer 	data[3] 	119549
scalar ws12_network.node[3].content_store 	p_hit[3] 	0.33638361394435
scalar ws12_network.node[3].content_store 	hits[3] 	60617
scalar ws12_network.node[3].content_store 	misses[3] 	119585
scalar ws12_network.node[3].content_store 	decision_yes[3] 	1195
scalar ws12_network.node[3].content_store 	decision_no[3] 	118354
scalar ws12_network.node[3].content_store 	decision_ratio[3] 	0.0099959012622439
scalar ws12_network.node[4].core_layer 	interests[4] 	38693
scalar ws12_network.node[4].core_layer 	data[4] 	33162
scalar ws12_network.node[4].content_store 	p_hit[4] 	0.14294575246169
scalar ws12_network.node[4].content_store 	hits[4] 	5531
scalar ws12_network.node[4].content_store 	misses[4] 	33162
scalar ws12_network.node[4].content_store 	decision_yes[4] 	363
scalar ws12_network.node[4].content_store 	decision_no[4] 	32799
scalar ws12_network.node[4].content_store 	decision_ratio[4] 	0.010946263795911
scalar ws12_network.node[5].core_layer 	interests[5] 	38368
scalar ws12_network.node[5].core_layer 	data[5] 	33127
scalar ws12_network.node[5].content_store 	p_hit[5] 	0.13659820683903
scalar ws12_network.node[5].content_store 	hits[5] 	5241
scalar ws12_network.node[5].content_store 	misses[5] 	33127
scalar ws12_network.node[5].content_store 	decision_yes[5] 	348
scalar ws12_network.node[5].content_store 	decision_no[5] 	32779
scalar ws12_network.node[5].content_store 	decision_ratio[5] 	0.010505026111631
scalar ws12_network.node[6].core_layer 	interests[6] 	0
scalar ws12_network.node[6].core_layer 	data[6] 	0
scalar ws12_network.node[6].content_store 	p_hit[6] 	-nan
scalar ws12_network.node[6].content_store 	hits[6] 	0
scalar ws12_network.node[6].content_store 	misses[6] 	0
scalar ws12_network.node[6].content_store 	decision_yes[6] 	0
scalar ws12_network.node[6].content_store 	decision_no[6] 	0
scalar ws12_network.node[6].content_store 	decision_ratio[6] 	0
scalar ws12_network.node[7].core_layer 	interests[7] 	0
scalar ws12_network.node[7].core_layer 	data[7] 	0
scalar ws12_network.node[7].content_store 	p_hit[7] 	-nan
scalar ws12_network.node[7].content_store 	hits[7] 	0
scalar ws12_network.node[7].content_store 	misses[7] 	0
scalar ws12_network.node[7].content_store 	decision_yes[7] 	0
scalar ws12_network.node[7].content_store 	decision_no[7] 	0
scalar ws12_network.node[7].content_store 	decision_ratio[7] 	0
scalar ws12_network.node[8].core_layer 	interests[8] 	0
scalar ws12_network.node[8].core_layer 	data[8] 	0
scalar ws12_network.node[8].content_store 	p_hit[8] 	-nan
scalar ws12_network.node[8].content_store 	hits[8] 	0
scalar ws12_network.node[8].content_store 	misses[8] 	0
scalar ws12_network.node[8].content_store 	decision_yes[8] 	0
scalar ws12_network.node[8].content_store 	decision_no[8] 	0
scalar ws12_network.node[8].content_store 	decision_ratio[8] 	0
scalar ws12_network.node[9].core_layer 	interests[9] 	0
scalar ws12_network.node[9].core_layer 	data[9] 	0
scalar ws12_network.node[9].content_store 	p_hit[9] 	-nan
scalar ws12_network.node[9].content_store 	hits[9] 	0
scalar ws12_network.node[9].content_store 	misses[9] 	0
scalar ws12_network.node[9].content_store 	decision_yes[9] 	0
scalar ws12_network.node[9].content_store 	decision_no[9] 	0
scalar ws12_network.node[9].content_store 	decision_ratio[9] 	0
scalar ws12_network.node[10].core_layer 	interests[10] 	214162
scalar ws12_network.node[10].core_layer 	data[10] 	153552
scalar ws12_network.node[10].content_store 	p_hit[10] 	0.28283729139623
scalar ws12_network.node[10].content_store 	hits[10] 	60573
scalar ws12_network.node[10].content_store 	misses[10] 	153589
scalar ws12_network.node[10].content_store 	decision_yes[10] 	1524
scalar ws12_network.node[10].content_store 	decision_no[10] 	152028
scalar ws12_network.node[10].content_store 	decision_ratio[10] 	0.0099249765551735
scalar ws12_network.node[11].core_layer 	interests[11] 	106164
scalar ws12_network.node[11].core_layer 	repo_load[11] 	99063
scalar ws12_network.node[11].core_layer 	data[11] 	0
scalar ws12_network.node[11].content_store 	p_hit[11] 	0.066887080366226
scalar ws12_network.node[11].content_store 	hits[11] 	7101
scalar ws12_network.node[11].content_store 	misses[11] 	99063
scalar ws12_network.node[11].content_store 	decision_yes[11] 	1068
scalar ws12_network.node[11].content_store 	decision_no[11] 	97995
scalar ws12_network.node[11].content_store 	decision_ratio[11] 	0.010781018139972
scalar ws12_network.node[12].core_layer 	interests[12] 	145337
scalar ws12_network.node[12].core_layer 	repo_load[12] 	97002
scalar ws12_network.node[12].core_layer 	data[12] 	40583
scalar ws12_network.node[12].content_store 	p_hit[12] 	0.053338103855178
scalar ws12_network.node[12].content_store 	hits[12] 	7752
scalar ws12_network.node[12].content_store 	misses[12] 	137585
scalar ws12_network.node[12].content_store 	decision_yes[12] 	1328
scalar ws12_network.node[12].content_store 	decision_no[12] 	136257
scalar ws12_network.node[12].content_store 	decision_ratio[12] 	0.0096522149943671
scalar ws12_network.node[13].core_layer 	interests[13] 	40583
scalar ws12_network.node[13].core_layer 	data[13] 	36212
scalar ws12_network.node[13].content_store 	p_hit[13] 	0.10770519675726
scalar ws12_network.node[13].content_store 	hits[13] 	4371
scalar ws12_network.node[13].content_store 	misses[13] 	36212
scalar ws12_network.node[13].content_store 	decision_yes[13] 	361
scalar ws12_network.node[13].content_store 	decision_no[13] 	35851
scalar ws12_network.node[13].content_store 	decision_ratio[13] 	0.0099690710261792
scalar ws12_network.node[14].core_layer 	interests[14] 	33162
scalar ws12_network.node[14].core_layer 	data[14] 	31120
scalar ws12_network.node[14].content_store 	p_hit[14] 	0.061576503226585
scalar ws12_network.node[14].content_store 	hits[14] 	2042
scalar ws12_network.node[14].content_store 	misses[14] 	31120
scalar ws12_network.node[14].content_store 	decision_yes[14] 	320
scalar ws12_network.node[14].content_store 	decision_no[14] 	30800
scalar ws12_network.node[14].content_store 	decision_ratio[14] 	0.010282776349614
scalar ws12_network.node[15].core_layer 	interests[15] 	106043
scalar ws12_network.node[15].core_layer 	repo_load[15] 	97360
scalar ws12_network.node[15].core_layer 	data[15] 	0
scalar ws12_network.node[15].content_store 	p_hit[15] 	0.081881878106051
scalar ws12_network.node[15].content_store 	hits[15] 	8683
scalar ws12_network.node[15].content_store 	misses[15] 	97360
scalar ws12_network.node[15].content_store 	decision_yes[15] 	901
scalar ws12_network.node[15].content_store 	decision_no[15] 	96459
scalar ws12_network.node[15].content_store 	decision_ratio[15] 	0.0092543138866064
scalar ws12_network.node[16].core_layer 	interests[16] 	38706
scalar ws12_network.node[16].core_layer 	data[16] 	33582
scalar ws12_network.node[16].content_store 	p_hit[16] 	0.13238257634475
scalar ws12_network.node[16].content_store 	hits[16] 	5124
scalar ws12_network.node[16].content_store 	misses[16] 	33582
scalar ws12_network.node[16].content_store 	decision_yes[16] 	345
scalar ws12_network.node[16].content_store 	decision_no[16] 	33237
scalar ws12_network.node[16].content_store 	decision_ratio[16] 	0.010273360728962
scalar ws12_network.node[17].core_layer 	interests[17] 	0
scalar ws12_network.node[17].core_layer 	data[17] 	0
scalar ws12_network.node[17].content_store 	p_hit[17] 	-nan
scalar ws12_network.node[17].content_store 	hits[17] 	0
scalar ws12_network.node[17].content_store 	misses[17] 	0
scalar ws12_network.node[17].content_store 	decision_yes[17] 	0
scalar ws12_network.node[17].content_store 	decision_no[17] 	0
scalar ws12_network.node[17].content_store 	decision_ratio[17] 	0
scalar ws12_network.node[18].core_layer 	interests[18] 	0
scalar ws12_network.node[18].core_layer 	data[18] 	0
scalar ws12_network.node[18].content_store 	p_hit[18] 	-nan
scalar ws12_network.node[18].content_store 	hits[18] 	0
scalar ws12_network.node[18].content_store 	misses[18] 	0
scalar ws12_network.node[18].content_store 	decision_yes[18] 	0
scalar ws12_network.node[18].content_store 	decision_no[18] 	0
scalar ws12_network.node[18].content_store 	decision_ratio[18] 	0
scalar ws12_network.node[19].core_layer 	interests[19] 	39101
scalar ws12_network.node[19].core_layer 	data[19] 	33570
scalar ws12_network.node[19].content_store 	p_hit[19] 	0.14145418275747
scalar ws12_network.node[19].content_store 	hits[19] 	5531
scalar ws12_network.node[19].content_store 	misses[19] 	33570
scalar ws12_network.node[19].content_store 	decision_yes[19] 	335
scalar ws12_network.node[19].content_store 	decision_no[19] 	33235
scalar ws12_network.node[19].content_store 	decision_ratio[19] 	0.0099791480488531
scalar ws12_network.node[20].core_layer 	interests[20] 	0
scalar ws12_network.node[20].core_layer 	data[20] 	0
scalar ws12_network.node[20].content_store 	p_hit[20] 	-nan
scalar ws12_network.node[20].content_store 	hits[20] 	0
scalar ws12_network.node[20].content_store 	misses[20] 	0
scalar ws12_network.node[20].content_store 	decision_yes[20] 	0
scalar ws12_network.node[20].content_store 	decision_no[20] 	0
scalar ws12_network.node[20].content_store 	decision_ratio[20] 	0
scalar ws12_network.node[21].core_layer 	interests[21] 	178975
scalar ws12_network.node[21].core_layer 	data[21] 	119931
scalar ws12_network.node[21].content_store 	p_hit[21] 	0.32972761558877
scalar ws12_network.node[21].content_store 	hits[21] 	59013
scalar ws12_network.node[21].content_store 	misses[21] 	119962
scalar ws12_network.node[21].content_store 	decision_yes[21] 	1209
scalar ws12_network.node[21].content_store 	decision_no[21] 	118722
scalar ws12_network.node[21].content_store 	decision_ratio[21] 	0.010080796457963
scalar ws12_network.client[3] 	hdistance[3] 	2.0984480978653
scalar ws12_network.client[3] 	downloads[3] 	180166
scalar ws12_network.client[3] 	avg_time[3] 	0.008203536927
scalar ws12_network.client[3] 	interests_sent[3] 	180202
scalar ws12_network.client[10] 	hdistance[10] 	1.6739625274841
scalar ws12_network.client[10] 	downloads[10] 	180559
scalar ws12_network.client[10] 	avg_time[10] 	0.005681026722
scalar ws12_network.client[10] 	interests_sent[10] 	180592
scalar ws12_network.client[21] 	hdistance[21] 	1.9724215396996
scalar ws12_network.client[21] 	downloads[21] 	178944
scalar ws12_network.client[21] 	avg_time[21] 	0.007423449157
scalar ws12_network.client[21] 	interests_sent[21] 	178975
