version 2
run General-8-20141030-19:08:41-5042
attr D fix0.01
attr F spr
attr R lru
attr a 1
attr configname General
attr csize 1e3
attr ctlg 1e5
attr datetime 20141030-19:08:41
attr experiment General
attr inifile omnetpp.ini
attr iterationvars "$rep=7, $lambda=100, $a=1, $ctlg=1e5, $F=spr, $ttl=10, $D=fix0.01, $R=lru, $csize=1e3, $window=60, $variance=0.05, $mytime=1800, $kappa=1, $priceratiovalue=10, $pricebits=0"
attr iterationvars2 "$rep=7, $lambda=100, $a=1, $ctlg=1e5, $F=spr, $ttl=10, $D=fix0.01, $R=lru, $csize=1e3, $window=60, $variance=0.05, $mytime=1800, $kappa=1, $priceratiovalue=10, $pricebits=0, $repetition=0"
attr kappa 1
attr lambda 100
attr measurement "$rep=7, $lambda=100, $a=1, $ctlg=1e5, $F=spr, $ttl=10, $D=fix0.01, $R=lru, $csize=1e3, $window=60, $variance=0.05, $mytime=1800, $kappa=1, $priceratiovalue=10, $pricebits=0"
attr mytime 1800
attr network networks.ws${rep}_network
attr pricebits 0
attr priceratiovalue 10
attr processid 5042
attr rep 7
attr repetition 0
attr replication #0
attr resultdir results
attr runnumber 8
attr seedset 7
attr ttl 10
attr variance 0.05
attr window 60

scalar . 	a 	1
scalar . 	csize 	1e3
scalar . 	ctlg 	1e5
scalar . 	kappa 	1
scalar . 	lambda 	100
scalar . 	mytime 	1800
scalar . 	pricebits 	0
scalar . 	priceratiovalue 	10
scalar . 	rep 	7
scalar . 	ttl 	10
scalar . 	variance 	0.05
scalar . 	window 	60
scalar ws7_network.content_distribution 	repo-0 	21
scalar ws7_network.content_distribution 	repo-1 	4
scalar ws7_network.content_distribution 	repo-2 	12
scalar ws7_network.content_distribution 	client-0 	4
scalar ws7_network.content_distribution 	client-1 	6
scalar ws7_network.content_distribution 	client-2 	11
scalar ws7_network.content_distribution 	repo-0_card 	33105
scalar ws7_network.content_distribution 	repo-0_price 	0
scalar ws7_network.content_distribution 	repo-1_card 	33508
scalar ws7_network.content_distribution 	repo-1_price 	1
scalar ws7_network.content_distribution 	repo-2_card 	33387
scalar ws7_network.content_distribution 	repo-2_price 	10
scalar ws7_network.statistics 	repo_popularity[0] 	0.38081187055787
scalar ws7_network.statistics 	repo_popularity[1] 	0.26942063079195
scalar ws7_network.statistics 	repo_popularity[2] 	0.3497674986502
scalar ws7_network.statistics 	stabilization_time 	36060
scalar ws7_network.statistics 	p_hit 	0.18040477973826
scalar ws7_network.statistics 	interests 	57530.727272727
scalar ws7_network.statistics 	data 	32998.545454545
scalar ws7_network.statistics 	hdistance 	1.9226591661766
scalar ws7_network.statistics 	avg_time 	0.006970904297
scalar ws7_network.statistics 	downloads 	539588
scalar ws7_network.statistics 	total_cost 	1124362
scalar ws7_network.statistics 	total_replicas 	100000
scalar ws7_network.statistics 	inner_hit 	0.4232099305396
scalar ws7_network.statistics 	interests_sent 	539711
scalar ws7_network.node[0].core_layer 	interests[0] 	0
scalar ws7_network.node[0].core_layer 	data[0] 	0
scalar ws7_network.node[0].core_layer 	repo_int[0] 	311229
scalar ws7_network.node[0].content_store 	p_hit[0] 	-nan
scalar ws7_network.node[0].content_store 	hits[0] 	0
scalar ws7_network.node[0].content_store 	misses[0] 	0
scalar ws7_network.node[0].content_store 	decision_yes[0] 	0
scalar ws7_network.node[0].content_store 	decision_no[0] 	0
scalar ws7_network.node[0].content_store 	decision_ratio[0] 	0
scalar ws7_network.node[1].core_layer 	interests[1] 	0
scalar ws7_network.node[1].core_layer 	data[1] 	0
scalar ws7_network.node[1].content_store 	p_hit[1] 	-nan
scalar ws7_network.node[1].content_store 	hits[1] 	0
scalar ws7_network.node[1].content_store 	misses[1] 	0
scalar ws7_network.node[1].content_store 	decision_yes[1] 	0
scalar ws7_network.node[1].content_store 	decision_no[1] 	0
scalar ws7_network.node[1].content_store 	decision_ratio[1] 	0
scalar ws7_network.node[2].core_layer 	interests[2] 	118412
scalar ws7_network.node[2].core_layer 	data[2] 	107736
scalar ws7_network.node[2].content_store 	p_hit[2] 	0.090159781103267
scalar ws7_network.node[2].content_store 	hits[2] 	10676
scalar ws7_network.node[2].content_store 	misses[2] 	107736
scalar ws7_network.node[2].content_store 	decision_yes[2] 	1026
scalar ws7_network.node[2].content_store 	decision_no[2] 	106710
scalar ws7_network.node[2].content_store 	decision_ratio[2] 	0.0095232791267543
scalar ws7_network.node[3].core_layer 	interests[3] 	0
scalar ws7_network.node[3].core_layer 	data[3] 	0
scalar ws7_network.node[3].content_store 	p_hit[3] 	-nan
scalar ws7_network.node[3].content_store 	hits[3] 	0
scalar ws7_network.node[3].content_store 	misses[3] 	0
scalar ws7_network.node[3].content_store 	decision_yes[3] 	0
scalar ws7_network.node[3].content_store 	decision_no[3] 	0
scalar ws7_network.node[3].content_store 	decision_ratio[3] 	0
scalar ws7_network.node[4].core_layer 	interests[4] 	333391
scalar ws7_network.node[4].core_layer 	repo_load[4] 	110432
scalar ws7_network.node[4].core_layer 	data[4] 	161657
scalar ws7_network.node[4].content_store 	p_hit[4] 	0.18370921830523
scalar ws7_network.node[4].content_store 	hits[4] 	61247
scalar ws7_network.node[4].content_store 	misses[4] 	272144
scalar ws7_network.node[4].content_store 	decision_yes[4] 	2769
scalar ws7_network.node[4].content_store 	decision_no[4] 	269320
scalar ws7_network.node[4].content_store 	decision_ratio[4] 	0.01017681714439
scalar ws7_network.node[5].core_layer 	interests[5] 	0
scalar ws7_network.node[5].core_layer 	data[5] 	0
scalar ws7_network.node[5].content_store 	p_hit[5] 	-nan
scalar ws7_network.node[5].content_store 	hits[5] 	0
scalar ws7_network.node[5].content_store 	misses[5] 	0
scalar ws7_network.node[5].content_store 	decision_yes[5] 	0
scalar ws7_network.node[5].content_store 	decision_no[5] 	0
scalar ws7_network.node[5].content_store 	decision_ratio[5] 	0
scalar ws7_network.node[6].core_layer 	interests[6] 	179121
scalar ws7_network.node[6].core_layer 	data[6] 	119244
scalar ws7_network.node[6].content_store 	p_hit[6] 	0.3340535168964
scalar ws7_network.node[6].content_store 	hits[6] 	59836
scalar ws7_network.node[6].content_store 	misses[6] 	119285
scalar ws7_network.node[6].content_store 	decision_yes[6] 	1219
scalar ws7_network.node[6].content_store 	decision_no[6] 	118025
scalar ws7_network.node[6].content_store 	decision_ratio[6] 	0.010222736573748
scalar ws7_network.node[7].core_layer 	interests[7] 	0
scalar ws7_network.node[7].core_layer 	data[7] 	0
scalar ws7_network.node[7].content_store 	p_hit[7] 	-nan
scalar ws7_network.node[7].content_store 	hits[7] 	0
scalar ws7_network.node[7].content_store 	misses[7] 	0
scalar ws7_network.node[7].content_store 	decision_yes[7] 	0
scalar ws7_network.node[7].content_store 	decision_no[7] 	0
scalar ws7_network.node[7].content_store 	decision_ratio[7] 	0
scalar ws7_network.node[8].core_layer 	interests[8] 	37444
scalar ws7_network.node[8].core_layer 	data[8] 	34173
scalar ws7_network.node[8].content_store 	p_hit[8] 	0.087357119965816
scalar ws7_network.node[8].content_store 	hits[8] 	3271
scalar ws7_network.node[8].content_store 	misses[8] 	34173
scalar ws7_network.node[8].content_store 	decision_yes[8] 	313
scalar ws7_network.node[8].content_store 	decision_no[8] 	33860
scalar ws7_network.node[8].content_store 	decision_ratio[8] 	0.0091592777924092
scalar ws7_network.node[9].core_layer 	interests[9] 	119647
scalar ws7_network.node[9].core_layer 	data[9] 	112625
scalar ws7_network.node[9].content_store 	p_hit[9] 	0.058697668976238
scalar ws7_network.node[9].content_store 	hits[9] 	7023
scalar ws7_network.node[9].content_store 	misses[9] 	112624
scalar ws7_network.node[9].content_store 	decision_yes[9] 	1070
scalar ws7_network.node[9].content_store 	decision_no[9] 	111555
scalar ws7_network.node[9].content_store 	decision_ratio[9] 	0.0095005549389567
scalar ws7_network.node[10].core_layer 	interests[10] 	0
scalar ws7_network.node[10].core_layer 	data[10] 	0
scalar ws7_network.node[10].content_store 	p_hit[10] 	-nan
scalar ws7_network.node[10].content_store 	hits[10] 	0
scalar ws7_network.node[10].content_store 	misses[10] 	0
scalar ws7_network.node[10].content_store 	decision_yes[10] 	0
scalar ws7_network.node[10].content_store 	decision_no[10] 	0
scalar ws7_network.node[10].content_store 	decision_ratio[10] 	0
scalar ws7_network.node[11].core_layer 	interests[11] 	180114
scalar ws7_network.node[11].core_layer 	data[11] 	119648
scalar ws7_network.node[11].content_store 	p_hit[11] 	0.33542645213587
scalar ws7_network.node[11].content_store 	hits[11] 	60415
scalar ws7_network.node[11].content_store 	misses[11] 	119699
scalar ws7_network.node[11].content_store 	decision_yes[11] 	1247
scalar ws7_network.node[11].content_store 	decision_no[11] 	118401
scalar ws7_network.node[11].content_store 	decision_ratio[11] 	0.010422238566462
scalar ws7_network.node[12].core_layer 	interests[12] 	110402
scalar ws7_network.node[12].core_layer 	repo_load[12] 	101393
scalar ws7_network.node[12].core_layer 	data[12] 	0
scalar ws7_network.node[12].content_store 	p_hit[12] 	0.081601782576403
scalar ws7_network.node[12].content_store 	hits[12] 	9009
scalar ws7_network.node[12].content_store 	misses[12] 	101393
scalar ws7_network.node[12].content_store 	decision_yes[12] 	956
scalar ws7_network.node[12].content_store 	decision_no[12] 	100437
scalar ws7_network.node[12].content_store 	decision_ratio[12] 	0.0094286587831507
scalar ws7_network.node[13].core_layer 	interests[13] 	0
scalar ws7_network.node[13].core_layer 	data[13] 	0
scalar ws7_network.node[13].content_store 	p_hit[13] 	-nan
scalar ws7_network.node[13].content_store 	hits[13] 	0
scalar ws7_network.node[13].content_store 	misses[13] 	0
scalar ws7_network.node[13].content_store 	decision_yes[13] 	0
scalar ws7_network.node[13].content_store 	decision_no[13] 	0
scalar ws7_network.node[13].content_store 	decision_ratio[13] 	0
scalar ws7_network.node[14].core_layer 	interests[14] 	75180
scalar ws7_network.node[14].core_layer 	data[14] 	70885
scalar ws7_network.node[14].content_store 	p_hit[14] 	0.057142857142857
scalar ws7_network.node[14].content_store 	hits[14] 	4296
scalar ws7_network.node[14].content_store 	misses[14] 	70884
scalar ws7_network.node[14].content_store 	decision_yes[14] 	711
scalar ws7_network.node[14].content_store 	decision_no[14] 	70174
scalar ws7_network.node[14].content_store 	decision_ratio[14] 	0.010030330817521
scalar ws7_network.node[15].core_layer 	interests[15] 	0
scalar ws7_network.node[15].core_layer 	data[15] 	0
scalar ws7_network.node[15].content_store 	p_hit[15] 	-nan
scalar ws7_network.node[15].content_store 	hits[15] 	0
scalar ws7_network.node[15].content_store 	misses[15] 	0
scalar ws7_network.node[15].content_store 	decision_yes[15] 	0
scalar ws7_network.node[15].content_store 	decision_no[15] 	0
scalar ws7_network.node[15].content_store 	decision_ratio[15] 	0
scalar ws7_network.node[16].core_layer 	interests[16] 	0
scalar ws7_network.node[16].core_layer 	data[16] 	0
scalar ws7_network.node[16].content_store 	p_hit[16] 	-nan
scalar ws7_network.node[16].content_store 	hits[16] 	0
scalar ws7_network.node[16].content_store 	misses[16] 	0
scalar ws7_network.node[16].content_store 	decision_yes[16] 	0
scalar ws7_network.node[16].content_store 	decision_no[16] 	0
scalar ws7_network.node[16].content_store 	decision_ratio[16] 	0
scalar ws7_network.node[17].core_layer 	interests[17] 	0
scalar ws7_network.node[17].core_layer 	data[17] 	0
scalar ws7_network.node[17].content_store 	p_hit[17] 	-nan
scalar ws7_network.node[17].content_store 	hits[17] 	0
scalar ws7_network.node[17].content_store 	misses[17] 	0
scalar ws7_network.node[17].content_store 	decision_yes[17] 	0
scalar ws7_network.node[17].content_store 	decision_no[17] 	0
scalar ws7_network.node[17].content_store 	decision_ratio[17] 	0
scalar ws7_network.node[18].core_layer 	interests[18] 	0
scalar ws7_network.node[18].core_layer 	data[18] 	0
scalar ws7_network.node[18].content_store 	p_hit[18] 	-nan
scalar ws7_network.node[18].content_store 	hits[18] 	0
scalar ws7_network.node[18].content_store 	misses[18] 	0
scalar ws7_network.node[18].content_store 	decision_yes[18] 	0
scalar ws7_network.node[18].content_store 	decision_no[18] 	0
scalar ws7_network.node[18].content_store 	decision_ratio[18] 	0
scalar ws7_network.node[19].core_layer 	interests[19] 	0
scalar ws7_network.node[19].core_layer 	data[19] 	0
scalar ws7_network.node[19].content_store 	p_hit[19] 	-nan
scalar ws7_network.node[19].content_store 	hits[19] 	0
scalar ws7_network.node[19].content_store 	misses[19] 	0
scalar ws7_network.node[19].content_store 	decision_yes[19] 	0
scalar ws7_network.node[19].content_store 	decision_no[19] 	0
scalar ws7_network.node[19].content_store 	decision_ratio[19] 	0
scalar ws7_network.node[20].core_layer 	interests[20] 	0
scalar ws7_network.node[20].core_layer 	data[20] 	0
scalar ws7_network.node[20].content_store 	p_hit[20] 	-nan
scalar ws7_network.node[20].content_store 	hits[20] 	0
scalar ws7_network.node[20].content_store 	misses[20] 	0
scalar ws7_network.node[20].content_store 	decision_yes[20] 	0
scalar ws7_network.node[20].content_store 	decision_no[20] 	0
scalar ws7_network.node[20].content_store 	decision_ratio[20] 	0
scalar ws7_network.node[21].core_layer 	interests[21] 	111965
scalar ws7_network.node[21].core_layer 	repo_load[21] 	99404
scalar ws7_network.node[21].core_layer 	data[21] 	0
scalar ws7_network.node[21].content_store 	p_hit[21] 	0.11218684410307
scalar ws7_network.node[21].content_store 	hits[21] 	12561
scalar ws7_network.node[21].content_store 	misses[21] 	99404
scalar ws7_network.node[21].content_store 	decision_yes[21] 	1035
scalar ws7_network.node[21].content_store 	decision_no[21] 	98369
scalar ws7_network.node[21].content_store 	decision_ratio[21] 	0.010412055852883
scalar ws7_network.client[4] 	hdistance[4] 	1.2855329878911
scalar ws7_network.client[4] 	downloads[4] 	180445
scalar ws7_network.client[4] 	avg_time[4] 	0.003529480239
scalar ws7_network.client[4] 	interests_sent[4] 	180476
scalar ws7_network.client[6] 	hdistance[6] 	1.8742684833594
scalar ws7_network.client[6] 	downloads[6] 	179080
scalar ws7_network.client[6] 	avg_time[6] 	0.006711312445
scalar ws7_network.client[6] 	interests_sent[6] 	179121
scalar ws7_network.client[11] 	hdistance[11] 	2.6081760272794
scalar ws7_network.client[11] 	downloads[11] 	180063
scalar ws7_network.client[11] 	avg_time[11] 	0.010671920208
scalar ws7_network.client[11] 	interests_sent[11] 	180114
