version 2
run General-23-20140904-14:35:04-24750
attr D fix0.01
attr F nrr
attr R lru
attr a 1
attr configname General
attr csize 1e3
attr ctlg 1e5
attr datetime 20140904-14:35:04
attr experiment General
attr inifile omnetpp.ini
attr iterationvars "$net=geant_cost, $rep=8, $priceratiovalue=10, $weights=0.333_0.333_0.334, $lambda=100, $a=1, $ctlg=1e5, $F=nrr, $ttl=10, $D=fix0.01, $xi=1, $R=lru, $csize=1e3, $pricebits=0, $window=60, $variance=0.05, $mytime=1800"
attr iterationvars2 "$net=geant_cost, $rep=8, $priceratiovalue=10, $weights=0.333_0.333_0.334, $lambda=100, $a=1, $ctlg=1e5, $F=nrr, $ttl=10, $D=fix0.01, $xi=1, $R=lru, $csize=1e3, $pricebits=0, $window=60, $variance=0.05, $mytime=1800, $repetition=0"
attr lambda 100
attr measurement "$net=geant_cost, $rep=8, $priceratiovalue=10, $weights=0.333_0.333_0.334, $lambda=100, $a=1, $ctlg=1e5, $F=nrr, $ttl=10, $D=fix0.01, $xi=1, $R=lru, $csize=1e3, $pricebits=0, $window=60, $variance=0.05, $mytime=1800"
attr mytime 1800
attr net geant_cost
attr network networks.${net=geant_cost}_network
attr pricebits 0
attr priceratiovalue 10
attr processid 24750
attr rep 8
attr repetition 0
attr replication #0
attr resultdir results
attr runnumber 23
attr seedset 8
attr ttl 10
attr variance 0.05
attr weights 0.333_0.333_0.334
attr window 60
attr xi 1

scalar . 	a 	1
scalar . 	csize 	1e3
scalar . 	ctlg 	1e5
scalar . 	lambda 	100
scalar . 	mytime 	1800
scalar . 	pricebits 	0
scalar . 	priceratiovalue 	10
scalar . 	rep 	8
scalar . 	ttl 	10
scalar . 	variance 	0.05
scalar . 	window 	60
scalar . 	xi 	1
scalar geant_cost_network.content_distribution 	repo-0 	4
scalar geant_cost_network.content_distribution 	repo-1 	15
scalar geant_cost_network.content_distribution 	repo-2 	12
scalar geant_cost_network.content_distribution 	client-0 	8
scalar geant_cost_network.content_distribution 	client-1 	4
scalar geant_cost_network.content_distribution 	client-2 	20
scalar geant_cost_network.content_distribution 	repo-0_card 	33476
scalar geant_cost_network.content_distribution 	repo-0_price 	1
scalar geant_cost_network.content_distribution 	repo-1_card 	33258
scalar geant_cost_network.content_distribution 	repo-1_price 	0
scalar geant_cost_network.content_distribution 	repo-2_card 	33266
scalar geant_cost_network.content_distribution 	repo-2_price 	10
scalar geant_cost_network.statistics 	repo_popularity[0] 	0.27308552772926
scalar geant_cost_network.statistics 	repo_popularity[1] 	0.42673410384757
scalar geant_cost_network.statistics 	repo_popularity[2] 	0.30018036842319
scalar geant_cost_network.statistics 	stabilization_time 	36060
scalar geant_cost_network.statistics 	p_hit 	0.19347538771694
scalar geant_cost_network.statistics 	interests 	57607.045454545
scalar geant_cost_network.statistics 	data 	33121.454545455
scalar geant_cost_network.statistics 	hdistance 	1.8987078913448
scalar geant_cost_network.statistics 	avg_time 	0.003929023553
scalar geant_cost_network.statistics 	downloads 	538620
scalar geant_cost_network.statistics 	total_cost 	971786
scalar geant_cost_network.statistics 	total_replicas 	100000
scalar geant_cost_network.statistics 	inner_hit 	0.45528758679589
scalar geant_cost_network.statistics 	interests_sent 	538681
scalar geant_cost_network.node[0].core_layer 	interests[0] 	0
scalar geant_cost_network.node[0].core_layer 	data[0] 	0
scalar geant_cost_network.node[0].core_layer 	repo_int[0] 	293393
scalar geant_cost_network.node[0].content_store 	p_hit[0] 	-nan
scalar geant_cost_network.node[0].content_store 	hits[0] 	0
scalar geant_cost_network.node[0].content_store 	misses[0] 	0
scalar geant_cost_network.node[0].content_store 	decision_yes[0] 	0
scalar geant_cost_network.node[0].content_store 	decision_no[0] 	0
scalar geant_cost_network.node[0].content_store 	decision_ratio[0] 	0
scalar geant_cost_network.node[1].core_layer 	interests[1] 	0
scalar geant_cost_network.node[1].core_layer 	data[1] 	0
scalar geant_cost_network.node[1].content_store 	p_hit[1] 	-nan
scalar geant_cost_network.node[1].content_store 	hits[1] 	0
scalar geant_cost_network.node[1].content_store 	misses[1] 	0
scalar geant_cost_network.node[1].content_store 	decision_yes[1] 	0
scalar geant_cost_network.node[1].content_store 	decision_no[1] 	0
scalar geant_cost_network.node[1].content_store 	decision_ratio[1] 	0
scalar geant_cost_network.node[2].core_layer 	interests[2] 	0
scalar geant_cost_network.node[2].core_layer 	data[2] 	0
scalar geant_cost_network.node[2].content_store 	p_hit[2] 	-nan
scalar geant_cost_network.node[2].content_store 	hits[2] 	0
scalar geant_cost_network.node[2].content_store 	misses[2] 	0
scalar geant_cost_network.node[2].content_store 	decision_yes[2] 	0
scalar geant_cost_network.node[2].content_store 	decision_no[2] 	0
scalar geant_cost_network.node[2].content_store 	decision_ratio[2] 	0
scalar geant_cost_network.node[3].core_layer 	interests[3] 	66377
scalar geant_cost_network.node[3].core_layer 	data[3] 	60019
scalar geant_cost_network.node[3].content_store 	p_hit[3] 	0.095786190999895
scalar geant_cost_network.node[3].content_store 	hits[3] 	6358
scalar geant_cost_network.node[3].content_store 	misses[3] 	60019
scalar geant_cost_network.node[3].content_store 	decision_yes[3] 	662
scalar geant_cost_network.node[3].content_store 	decision_no[3] 	59357
scalar geant_cost_network.node[3].content_store 	decision_ratio[3] 	0.011029840550492
scalar geant_cost_network.node[4].core_layer 	interests[4] 	370199
scalar geant_cost_network.node[4].core_layer 	repo_load[4] 	112666
scalar geant_cost_network.node[4].core_layer 	data[4] 	197341
scalar geant_cost_network.node[4].content_store 	p_hit[4] 	0.16247477707935
scalar geant_cost_network.node[4].content_store 	hits[4] 	60148
scalar geant_cost_network.node[4].content_store 	misses[4] 	310051
scalar geant_cost_network.node[4].content_store 	decision_yes[4] 	3051
scalar geant_cost_network.node[4].content_store 	decision_no[4] 	306956
scalar geant_cost_network.node[4].content_store 	decision_ratio[4] 	0.0098417132516363
scalar geant_cost_network.node[5].core_layer 	interests[5] 	0
scalar geant_cost_network.node[5].core_layer 	data[5] 	0
scalar geant_cost_network.node[5].content_store 	p_hit[5] 	-nan
scalar geant_cost_network.node[5].content_store 	hits[5] 	0
scalar geant_cost_network.node[5].content_store 	misses[5] 	0
scalar geant_cost_network.node[5].content_store 	decision_yes[5] 	0
scalar geant_cost_network.node[5].content_store 	decision_no[5] 	0
scalar geant_cost_network.node[5].content_store 	decision_ratio[5] 	0
scalar geant_cost_network.node[6].core_layer 	interests[6] 	0
scalar geant_cost_network.node[6].core_layer 	data[6] 	0
scalar geant_cost_network.node[6].content_store 	p_hit[6] 	-nan
scalar geant_cost_network.node[6].content_store 	hits[6] 	0
scalar geant_cost_network.node[6].content_store 	misses[6] 	0
scalar geant_cost_network.node[6].content_store 	decision_yes[6] 	0
scalar geant_cost_network.node[6].content_store 	decision_no[6] 	0
scalar geant_cost_network.node[6].content_store 	decision_ratio[6] 	0
scalar geant_cost_network.node[7].core_layer 	interests[7] 	103577
scalar geant_cost_network.node[7].core_layer 	data[7] 	84435
scalar geant_cost_network.node[7].content_store 	p_hit[7] 	0.18480936887533
scalar geant_cost_network.node[7].content_store 	hits[7] 	19142
scalar geant_cost_network.node[7].content_store 	misses[7] 	84435
scalar geant_cost_network.node[7].content_store 	decision_yes[7] 	800
scalar geant_cost_network.node[7].content_store 	decision_no[7] 	83635
scalar geant_cost_network.node[7].content_store 	decision_ratio[7] 	0.0094747438858293
scalar geant_cost_network.node[8].core_layer 	interests[8] 	184846
scalar geant_cost_network.node[8].core_layer 	data[8] 	123003
scalar geant_cost_network.node[8].content_store 	p_hit[8] 	0.3344567910585
scalar geant_cost_network.node[8].content_store 	hits[8] 	61823
scalar geant_cost_network.node[8].content_store 	misses[8] 	123023
scalar geant_cost_network.node[8].content_store 	decision_yes[8] 	1248
scalar geant_cost_network.node[8].content_store 	decision_no[8] 	121755
scalar geant_cost_network.node[8].content_store 	decision_ratio[8] 	0.010146093997707
scalar geant_cost_network.node[9].core_layer 	interests[9] 	35753
scalar geant_cost_network.node[9].core_layer 	data[9] 	30416
scalar geant_cost_network.node[9].content_store 	p_hit[9] 	0.14927418678153
scalar geant_cost_network.node[9].content_store 	hits[9] 	5337
scalar geant_cost_network.node[9].content_store 	misses[9] 	30416
scalar geant_cost_network.node[9].content_store 	decision_yes[9] 	310
scalar geant_cost_network.node[9].content_store 	decision_no[9] 	30106
scalar geant_cost_network.node[9].content_store 	decision_ratio[9] 	0.010192004208311
scalar geant_cost_network.node[10].core_layer 	interests[10] 	0
scalar geant_cost_network.node[10].core_layer 	data[10] 	0
scalar geant_cost_network.node[10].content_store 	p_hit[10] 	-nan
scalar geant_cost_network.node[10].content_store 	hits[10] 	0
scalar geant_cost_network.node[10].content_store 	misses[10] 	0
scalar geant_cost_network.node[10].content_store 	decision_yes[10] 	0
scalar geant_cost_network.node[10].content_store 	decision_no[10] 	0
scalar geant_cost_network.node[10].content_store 	decision_ratio[10] 	0
scalar geant_cost_network.node[11].core_layer 	interests[11] 	0
scalar geant_cost_network.node[11].core_layer 	data[11] 	0
scalar geant_cost_network.node[11].content_store 	p_hit[11] 	-nan
scalar geant_cost_network.node[11].content_store 	hits[11] 	0
scalar geant_cost_network.node[11].content_store 	misses[11] 	0
scalar geant_cost_network.node[11].content_store 	decision_yes[11] 	0
scalar geant_cost_network.node[11].content_store 	decision_no[11] 	0
scalar geant_cost_network.node[11].content_store 	decision_ratio[11] 	0
scalar geant_cost_network.node[12].core_layer 	interests[12] 	90435
scalar geant_cost_network.node[12].core_layer 	repo_load[12] 	85912
scalar geant_cost_network.node[12].core_layer 	data[12] 	0
scalar geant_cost_network.node[12].content_store 	p_hit[12] 	0.050013822082158
scalar geant_cost_network.node[12].content_store 	hits[12] 	4523
scalar geant_cost_network.node[12].content_store 	misses[12] 	85912
scalar geant_cost_network.node[12].content_store 	decision_yes[12] 	839
scalar geant_cost_network.node[12].content_store 	decision_no[12] 	85073
scalar geant_cost_network.node[12].content_store 	decision_ratio[12] 	0.0097658068721482
scalar geant_cost_network.node[13].core_layer 	interests[13] 	0
scalar geant_cost_network.node[13].core_layer 	data[13] 	0
scalar geant_cost_network.node[13].content_store 	p_hit[13] 	-nan
scalar geant_cost_network.node[13].content_store 	hits[13] 	0
scalar geant_cost_network.node[13].content_store 	misses[13] 	0
scalar geant_cost_network.node[13].content_store 	decision_yes[13] 	0
scalar geant_cost_network.node[13].content_store 	decision_no[13] 	0
scalar geant_cost_network.node[13].content_store 	decision_ratio[13] 	0
scalar geant_cost_network.node[14].core_layer 	interests[14] 	0
scalar geant_cost_network.node[14].core_layer 	data[14] 	0
scalar geant_cost_network.node[14].content_store 	p_hit[14] 	-nan
scalar geant_cost_network.node[14].content_store 	hits[14] 	0
scalar geant_cost_network.node[14].content_store 	misses[14] 	0
scalar geant_cost_network.node[14].content_store 	decision_yes[14] 	0
scalar geant_cost_network.node[14].content_store 	decision_no[14] 	0
scalar geant_cost_network.node[14].content_store 	decision_ratio[14] 	0
scalar geant_cost_network.node[15].core_layer 	interests[15] 	101920
scalar geant_cost_network.node[15].core_layer 	repo_load[15] 	94815
scalar geant_cost_network.node[15].core_layer 	data[15] 	0
scalar geant_cost_network.node[15].content_store 	p_hit[15] 	0.069711538461538
scalar geant_cost_network.node[15].content_store 	hits[15] 	7105
scalar geant_cost_network.node[15].content_store 	misses[15] 	94815
scalar geant_cost_network.node[15].content_store 	decision_yes[15] 	953
scalar geant_cost_network.node[15].content_store 	decision_no[15] 	93862
scalar geant_cost_network.node[15].content_store 	decision_ratio[15] 	0.010051152243843
scalar geant_cost_network.node[16].core_layer 	interests[16] 	0
scalar geant_cost_network.node[16].core_layer 	data[16] 	0
scalar geant_cost_network.node[16].content_store 	p_hit[16] 	-nan
scalar geant_cost_network.node[16].content_store 	hits[16] 	0
scalar geant_cost_network.node[16].content_store 	misses[16] 	0
scalar geant_cost_network.node[16].content_store 	decision_yes[16] 	0
scalar geant_cost_network.node[16].content_store 	decision_no[16] 	0
scalar geant_cost_network.node[16].content_store 	decision_ratio[16] 	0
scalar geant_cost_network.node[17].core_layer 	interests[17] 	0
scalar geant_cost_network.node[17].core_layer 	data[17] 	0
scalar geant_cost_network.node[17].content_store 	p_hit[17] 	-nan
scalar geant_cost_network.node[17].content_store 	hits[17] 	0
scalar geant_cost_network.node[17].content_store 	misses[17] 	0
scalar geant_cost_network.node[17].content_store 	decision_yes[17] 	0
scalar geant_cost_network.node[17].content_store 	decision_no[17] 	0
scalar geant_cost_network.node[17].content_store 	decision_ratio[17] 	0
scalar geant_cost_network.node[18].core_layer 	interests[18] 	132520
scalar geant_cost_network.node[18].core_layer 	data[18] 	113656
scalar geant_cost_network.node[18].content_store 	p_hit[18] 	0.14234077875038
scalar geant_cost_network.node[18].content_store 	hits[18] 	18863
scalar geant_cost_network.node[18].content_store 	misses[18] 	113657
scalar geant_cost_network.node[18].content_store 	decision_yes[18] 	1082
scalar geant_cost_network.node[18].content_store 	decision_no[18] 	112574
scalar geant_cost_network.node[18].content_store 	decision_ratio[18] 	0.0095199549517843
scalar geant_cost_network.node[19].core_layer 	interests[19] 	0
scalar geant_cost_network.node[19].core_layer 	data[19] 	0
scalar geant_cost_network.node[19].content_store 	p_hit[19] 	-nan
scalar geant_cost_network.node[19].content_store 	hits[19] 	0
scalar geant_cost_network.node[19].content_store 	misses[19] 	0
scalar geant_cost_network.node[19].content_store 	decision_yes[19] 	0
scalar geant_cost_network.node[19].content_store 	decision_no[19] 	0
scalar geant_cost_network.node[19].content_store 	decision_ratio[19] 	0
scalar geant_cost_network.node[20].core_layer 	interests[20] 	181728
scalar geant_cost_network.node[20].core_layer 	data[20] 	119802
scalar geant_cost_network.node[20].content_store 	p_hit[20] 	0.34063545518577
scalar geant_cost_network.node[20].content_store 	hits[20] 	61903
scalar geant_cost_network.node[20].content_store 	misses[20] 	119825
scalar geant_cost_network.node[20].content_store 	decision_yes[20] 	1202
scalar geant_cost_network.node[20].content_store 	decision_no[20] 	118600
scalar geant_cost_network.node[20].content_store 	decision_ratio[20] 	0.010033221482112
scalar geant_cost_network.node[21].core_layer 	interests[21] 	0
scalar geant_cost_network.node[21].core_layer 	data[21] 	0
scalar geant_cost_network.node[21].content_store 	p_hit[21] 	-nan
scalar geant_cost_network.node[21].content_store 	hits[21] 	0
scalar geant_cost_network.node[21].content_store 	misses[21] 	0
scalar geant_cost_network.node[21].content_store 	decision_yes[21] 	0
scalar geant_cost_network.node[21].content_store 	decision_no[21] 	0
scalar geant_cost_network.node[21].content_store 	decision_ratio[21] 	0
scalar geant_cost_network.client[4] 	hdistance[4] 	1.2403743152263
scalar geant_cost_network.client[4] 	downloads[4] 	180169
scalar geant_cost_network.client[4] 	avg_time[4] 	0.00204251629
scalar geant_cost_network.client[4] 	interests_sent[4] 	180187
scalar geant_cost_network.client[8] 	hdistance[8] 	2.0397777715737
scalar geant_cost_network.client[8] 	downloads[8] 	179095
scalar geant_cost_network.client[8] 	avg_time[8] 	0.003286075795
scalar geant_cost_network.client[8] 	interests_sent[8] 	179115
scalar geant_cost_network.client[20] 	hdistance[20] 	2.4159715872343
scalar geant_cost_network.client[20] 	downloads[20] 	179356
scalar geant_cost_network.client[20] 	avg_time[20] 	0.006458478575
scalar geant_cost_network.client[20] 	interests_sent[20] 	179379
