version 2
run General-23-20140904-13:54:21-27820
attr D fix0.01
attr F nrr
attr R lru
attr a 1
attr configname General
attr csize 1e3
attr ctlg 1e5
attr datetime 20140904-13:54:21
attr experiment General
attr inifile omnetpp.ini
attr iterationvars "$net=geant_cost, $rep=18, $priceratiovalue=10, $weights=0.333_0.333_0.334, $lambda=100, $a=1, $ctlg=1e5, $F=nrr, $ttl=10, $D=fix0.01, $xi=1, $R=lru, $csize=1e3, $pricebits=0, $window=60, $variance=0.05, $mytime=1800"
attr iterationvars2 "$net=geant_cost, $rep=18, $priceratiovalue=10, $weights=0.333_0.333_0.334, $lambda=100, $a=1, $ctlg=1e5, $F=nrr, $ttl=10, $D=fix0.01, $xi=1, $R=lru, $csize=1e3, $pricebits=0, $window=60, $variance=0.05, $mytime=1800, $repetition=0"
attr lambda 100
attr measurement "$net=geant_cost, $rep=18, $priceratiovalue=10, $weights=0.333_0.333_0.334, $lambda=100, $a=1, $ctlg=1e5, $F=nrr, $ttl=10, $D=fix0.01, $xi=1, $R=lru, $csize=1e3, $pricebits=0, $window=60, $variance=0.05, $mytime=1800"
attr mytime 1800
attr net geant_cost
attr network networks.${net=geant_cost}_network
attr pricebits 0
attr priceratiovalue 10
attr processid 27820
attr rep 18
attr repetition 0
attr replication #0
attr resultdir results
attr runnumber 23
attr seedset 18
attr ttl 10
attr variance 0.05
attr weights 0.333_0.333_0.334
attr window 60
attr xi 1

scalar . 	a 	1
scalar . 	csize 	1e3
scalar . 	ctlg 	1e5
scalar . 	lambda 	100
scalar . 	mytime 	1800
scalar . 	pricebits 	0
scalar . 	priceratiovalue 	10
scalar . 	rep 	18
scalar . 	ttl 	10
scalar . 	variance 	0.05
scalar . 	window 	60
scalar . 	xi 	1
scalar geant_cost_network.content_distribution 	repo-0 	13
scalar geant_cost_network.content_distribution 	repo-1 	7
scalar geant_cost_network.content_distribution 	repo-2 	8
scalar geant_cost_network.content_distribution 	client-0 	5
scalar geant_cost_network.content_distribution 	client-1 	1
scalar geant_cost_network.content_distribution 	client-2 	16
scalar geant_cost_network.content_distribution 	repo-0_card 	33458
scalar geant_cost_network.content_distribution 	repo-0_price 	10
scalar geant_cost_network.content_distribution 	repo-1_card 	33219
scalar geant_cost_network.content_distribution 	repo-1_price 	1
scalar geant_cost_network.content_distribution 	repo-2_card 	33323
scalar geant_cost_network.content_distribution 	repo-2_price 	0
scalar geant_cost_network.statistics 	repo_popularity[0] 	0.43323683832893
scalar geant_cost_network.statistics 	repo_popularity[1] 	0.27229839117188
scalar geant_cost_network.statistics 	repo_popularity[2] 	0.2944647704992
scalar geant_cost_network.statistics 	stabilization_time 	36060
scalar geant_cost_network.statistics 	p_hit 	0.17784269665849
scalar geant_cost_network.statistics 	interests 	69768.5
scalar geant_cost_network.statistics 	data 	45187.363636364
scalar geant_cost_network.statistics 	hdistance 	2.3333202492702
scalar geant_cost_network.statistics 	avg_time 	0.014956596949
scalar geant_cost_network.statistics 	downloads 	540588
scalar geant_cost_network.statistics 	total_cost 	1006000
scalar geant_cost_network.statistics 	total_replicas 	100000
scalar geant_cost_network.statistics 	inner_hit 	0.50500751034059
scalar geant_cost_network.statistics 	interests_sent 	540783
scalar geant_cost_network.node[0].core_layer 	interests[0] 	0
scalar geant_cost_network.node[0].core_layer 	data[0] 	0
scalar geant_cost_network.node[0].core_layer 	repo_int[0] 	267587
scalar geant_cost_network.node[0].content_store 	p_hit[0] 	-nan
scalar geant_cost_network.node[0].content_store 	hits[0] 	0
scalar geant_cost_network.node[0].content_store 	misses[0] 	0
scalar geant_cost_network.node[0].content_store 	decision_yes[0] 	0
scalar geant_cost_network.node[0].content_store 	decision_no[0] 	0
scalar geant_cost_network.node[0].content_store 	decision_ratio[0] 	0
scalar geant_cost_network.node[1].core_layer 	interests[1] 	189877
scalar geant_cost_network.node[1].core_layer 	data[1] 	126069
scalar geant_cost_network.node[1].content_store 	p_hit[1] 	0.33574893220348
scalar geant_cost_network.node[1].content_store 	hits[1] 	63751
scalar geant_cost_network.node[1].content_store 	misses[1] 	126126
scalar geant_cost_network.node[1].content_store 	decision_yes[1] 	1197
scalar geant_cost_network.node[1].content_store 	decision_no[1] 	124872
scalar geant_cost_network.node[1].content_store 	decision_ratio[1] 	0.0094948004664113
scalar geant_cost_network.node[2].core_layer 	interests[2] 	0
scalar geant_cost_network.node[2].core_layer 	data[2] 	0
scalar geant_cost_network.node[2].content_store 	p_hit[2] 	-nan
scalar geant_cost_network.node[2].content_store 	hits[2] 	0
scalar geant_cost_network.node[2].content_store 	misses[2] 	0
scalar geant_cost_network.node[2].content_store 	decision_yes[2] 	0
scalar geant_cost_network.node[2].content_store 	decision_no[2] 	0
scalar geant_cost_network.node[2].content_store 	decision_ratio[2] 	0
scalar geant_cost_network.node[3].core_layer 	interests[3] 	122006
scalar geant_cost_network.node[3].core_layer 	data[3] 	108920
scalar geant_cost_network.node[3].content_store 	p_hit[3] 	0.10724062751012
scalar geant_cost_network.node[3].content_store 	hits[3] 	13084
scalar geant_cost_network.node[3].content_store 	misses[3] 	108922
scalar geant_cost_network.node[3].content_store 	decision_yes[3] 	1063
scalar geant_cost_network.node[3].content_store 	decision_no[3] 	107857
scalar geant_cost_network.node[3].content_store 	decision_ratio[3] 	0.0097594564818215
scalar geant_cost_network.node[4].core_layer 	interests[4] 	126707
scalar geant_cost_network.node[4].core_layer 	data[4] 	121626
scalar geant_cost_network.node[4].content_store 	p_hit[4] 	0.040092496862841
scalar geant_cost_network.node[4].content_store 	hits[4] 	5080
scalar geant_cost_network.node[4].content_store 	misses[4] 	121627
scalar geant_cost_network.node[4].content_store 	decision_yes[4] 	1224
scalar geant_cost_network.node[4].content_store 	decision_no[4] 	120402
scalar geant_cost_network.node[4].content_store 	decision_ratio[4] 	0.010063637709042
scalar geant_cost_network.node[5].core_layer 	interests[5] 	187355
scalar geant_cost_network.node[5].core_layer 	data[5] 	124181
scalar geant_cost_network.node[5].content_store 	p_hit[5] 	0.33684182434416
scalar geant_cost_network.node[5].content_store 	hits[5] 	63109
scalar geant_cost_network.node[5].content_store 	misses[5] 	124246
scalar geant_cost_network.node[5].content_store 	decision_yes[5] 	1273
scalar geant_cost_network.node[5].content_store 	decision_no[5] 	122908
scalar geant_cost_network.node[5].content_store 	decision_ratio[5] 	0.010251165637255
scalar geant_cost_network.node[6].core_layer 	interests[6] 	66173
scalar geant_cost_network.node[6].core_layer 	data[6] 	60352
scalar geant_cost_network.node[6].content_store 	p_hit[6] 	0.08796639112629
scalar geant_cost_network.node[6].content_store 	hits[6] 	5821
scalar geant_cost_network.node[6].content_store 	misses[6] 	60352
scalar geant_cost_network.node[6].content_store 	decision_yes[6] 	574
scalar geant_cost_network.node[6].content_store 	decision_no[6] 	59778
scalar geant_cost_network.node[6].content_store 	decision_ratio[6] 	0.0095108695652174
scalar geant_cost_network.node[7].core_layer 	interests[7] 	181978
scalar geant_cost_network.node[7].core_layer 	repo_load[7] 	89430
scalar geant_cost_network.node[7].core_layer 	data[7] 	89469
scalar geant_cost_network.node[7].content_store 	p_hit[7] 	0.016892151798569
scalar geant_cost_network.node[7].content_store 	hits[7] 	3074
scalar geant_cost_network.node[7].content_store 	misses[7] 	178904
scalar geant_cost_network.node[7].content_store 	decision_yes[7] 	1781
scalar geant_cost_network.node[7].content_store 	decision_no[7] 	177118
scalar geant_cost_network.node[7].content_store 	decision_ratio[7] 	0.0099553379281047
scalar geant_cost_network.node[8].core_layer 	interests[8] 	89469
scalar geant_cost_network.node[8].core_layer 	repo_load[8] 	86500
scalar geant_cost_network.node[8].core_layer 	data[8] 	0
scalar geant_cost_network.node[8].content_store 	p_hit[8] 	0.033184678491992
scalar geant_cost_network.node[8].content_store 	hits[8] 	2969
scalar geant_cost_network.node[8].content_store 	misses[8] 	86500
scalar geant_cost_network.node[8].content_store 	decision_yes[8] 	840
scalar geant_cost_network.node[8].content_store 	decision_no[8] 	85660
scalar geant_cost_network.node[8].content_store 	decision_ratio[8] 	0.0097109826589595
scalar geant_cost_network.node[9].core_layer 	interests[9] 	0
scalar geant_cost_network.node[9].core_layer 	data[9] 	0
scalar geant_cost_network.node[9].content_store 	p_hit[9] 	-nan
scalar geant_cost_network.node[9].content_store 	hits[9] 	0
scalar geant_cost_network.node[9].content_store 	misses[9] 	0
scalar geant_cost_network.node[9].content_store 	decision_yes[9] 	0
scalar geant_cost_network.node[9].content_store 	decision_no[9] 	0
scalar geant_cost_network.node[9].content_store 	decision_ratio[9] 	0
scalar geant_cost_network.node[10].core_layer 	interests[10] 	0
scalar geant_cost_network.node[10].core_layer 	data[10] 	0
scalar geant_cost_network.node[10].content_store 	p_hit[10] 	-nan
scalar geant_cost_network.node[10].content_store 	hits[10] 	0
scalar geant_cost_network.node[10].content_store 	misses[10] 	0
scalar geant_cost_network.node[10].content_store 	decision_yes[10] 	0
scalar geant_cost_network.node[10].content_store 	decision_no[10] 	0
scalar geant_cost_network.node[10].content_store 	decision_ratio[10] 	0
scalar geant_cost_network.node[11].core_layer 	interests[11] 	0
scalar geant_cost_network.node[11].core_layer 	data[11] 	0
scalar geant_cost_network.node[11].content_store 	p_hit[11] 	-nan
scalar geant_cost_network.node[11].content_store 	hits[11] 	0
scalar geant_cost_network.node[11].content_store 	misses[11] 	0
scalar geant_cost_network.node[11].content_store 	decision_yes[11] 	0
scalar geant_cost_network.node[11].content_store 	decision_no[11] 	0
scalar geant_cost_network.node[11].content_store 	decision_ratio[11] 	0
scalar geant_cost_network.node[12].core_layer 	interests[12] 	35024
scalar geant_cost_network.node[12].core_layer 	data[12] 	31454
scalar geant_cost_network.node[12].content_store 	p_hit[12] 	0.10193010507081
scalar geant_cost_network.node[12].content_store 	hits[12] 	3570
scalar geant_cost_network.node[12].content_store 	misses[12] 	31454
scalar geant_cost_network.node[12].content_store 	decision_yes[12] 	358
scalar geant_cost_network.node[12].content_store 	decision_no[12] 	31096
scalar geant_cost_network.node[12].content_store 	decision_ratio[12] 	0.011381700260698
scalar geant_cost_network.node[13].core_layer 	interests[13] 	96364
scalar geant_cost_network.node[13].core_layer 	repo_load[13] 	91657
scalar geant_cost_network.node[13].core_layer 	data[13] 	0
scalar geant_cost_network.node[13].content_store 	p_hit[13] 	0.048846042090407
scalar geant_cost_network.node[13].content_store 	hits[13] 	4707
scalar geant_cost_network.node[13].content_store 	misses[13] 	91657
scalar geant_cost_network.node[13].content_store 	decision_yes[13] 	927
scalar geant_cost_network.node[13].content_store 	decision_no[13] 	90730
scalar geant_cost_network.node[13].content_store 	decision_ratio[13] 	0.010113793818257
scalar geant_cost_network.node[14].core_layer 	interests[14] 	152846
scalar geant_cost_network.node[14].core_layer 	data[14] 	139479
scalar geant_cost_network.node[14].content_store 	p_hit[14] 	0.087355900710519
scalar geant_cost_network.node[14].content_store 	hits[14] 	13352
scalar geant_cost_network.node[14].content_store 	misses[14] 	139494
scalar geant_cost_network.node[14].content_store 	decision_yes[14] 	1337
scalar geant_cost_network.node[14].content_store 	decision_no[14] 	138141
scalar geant_cost_network.node[14].content_store 	decision_ratio[14] 	0.0095857411204634
scalar geant_cost_network.node[15].core_layer 	interests[15] 	75781
scalar geant_cost_network.node[15].core_layer 	data[15] 	65938
scalar geant_cost_network.node[15].content_store 	p_hit[15] 	0.12988743880392
scalar geant_cost_network.node[15].content_store 	hits[15] 	9843
scalar geant_cost_network.node[15].content_store 	misses[15] 	65938
scalar geant_cost_network.node[15].content_store 	decision_yes[15] 	605
scalar geant_cost_network.node[15].content_store 	decision_no[15] 	65333
scalar geant_cost_network.node[15].content_store 	decision_ratio[15] 	0.0091752858746095
scalar geant_cost_network.node[16].core_layer 	interests[16] 	184643
scalar geant_cost_network.node[16].core_layer 	data[16] 	121626
scalar geant_cost_network.node[16].content_store 	p_hit[16] 	0.34085234750302
scalar geant_cost_network.node[16].content_store 	hits[16] 	62936
scalar geant_cost_network.node[16].content_store 	misses[16] 	121707
scalar geant_cost_network.node[16].content_store 	decision_yes[16] 	1207
scalar geant_cost_network.node[16].content_store 	decision_no[16] 	120419
scalar geant_cost_network.node[16].content_store 	decision_ratio[16] 	0.0099238649630836
scalar geant_cost_network.node[17].core_layer 	interests[17] 	26684
scalar geant_cost_network.node[17].core_layer 	data[17] 	5008
scalar geant_cost_network.node[17].content_store 	p_hit[17] 	0.81232199070604
scalar geant_cost_network.node[17].content_store 	hits[17] 	21676
scalar geant_cost_network.node[17].content_store 	misses[17] 	5008
scalar geant_cost_network.node[17].content_store 	decision_yes[17] 	56
scalar geant_cost_network.node[17].content_store 	decision_no[17] 	4952
scalar geant_cost_network.node[17].content_store 	decision_ratio[17] 	0.011182108626198
scalar geant_cost_network.node[18].core_layer 	interests[18] 	0
scalar geant_cost_network.node[18].core_layer 	data[18] 	0
scalar geant_cost_network.node[18].content_store 	p_hit[18] 	-nan
scalar geant_cost_network.node[18].content_store 	hits[18] 	0
scalar geant_cost_network.node[18].content_store 	misses[18] 	0
scalar geant_cost_network.node[18].content_store 	decision_yes[18] 	0
scalar geant_cost_network.node[18].content_store 	decision_no[18] 	0
scalar geant_cost_network.node[18].content_store 	decision_ratio[18] 	0
scalar geant_cost_network.node[19].core_layer 	interests[19] 	0
scalar geant_cost_network.node[19].core_layer 	data[19] 	0
scalar geant_cost_network.node[19].content_store 	p_hit[19] 	-nan
scalar geant_cost_network.node[19].content_store 	hits[19] 	0
scalar geant_cost_network.node[19].content_store 	misses[19] 	0
scalar geant_cost_network.node[19].content_store 	decision_yes[19] 	0
scalar geant_cost_network.node[19].content_store 	decision_no[19] 	0
scalar geant_cost_network.node[19].content_store 	decision_ratio[19] 	0
scalar geant_cost_network.node[20].core_layer 	interests[20] 	0
scalar geant_cost_network.node[20].core_layer 	data[20] 	0
scalar geant_cost_network.node[20].content_store 	p_hit[20] 	-nan
scalar geant_cost_network.node[20].content_store 	hits[20] 	0
scalar geant_cost_network.node[20].content_store 	misses[20] 	0
scalar geant_cost_network.node[20].content_store 	decision_yes[20] 	0
scalar geant_cost_network.node[20].content_store 	decision_no[20] 	0
scalar geant_cost_network.node[20].content_store 	decision_ratio[20] 	0
scalar geant_cost_network.node[21].core_layer 	interests[21] 	0
scalar geant_cost_network.node[21].core_layer 	data[21] 	0
scalar geant_cost_network.node[21].content_store 	p_hit[21] 	-nan
scalar geant_cost_network.node[21].content_store 	hits[21] 	0
scalar geant_cost_network.node[21].content_store 	misses[21] 	0
scalar geant_cost_network.node[21].content_store 	decision_yes[21] 	0
scalar geant_cost_network.node[21].content_store 	decision_no[21] 	0
scalar geant_cost_network.node[21].content_store 	decision_ratio[21] 	0
scalar geant_cost_network.client[1] 	hdistance[1] 	2.4246327206455
scalar geant_cost_network.client[1] 	downloads[1] 	179972
scalar geant_cost_network.client[1] 	avg_time[1] 	0.013216399964
scalar geant_cost_network.client[1] 	interests_sent[1] 	180024
scalar geant_cost_network.client[5] 	hdistance[5] 	1.9405548878205
scalar geant_cost_network.client[5] 	downloads[5] 	179712
scalar geant_cost_network.client[5] 	avg_time[5] 	0.013237228602
scalar geant_cost_network.client[5] 	interests_sent[5] 	179774
scalar geant_cost_network.client[16] 	hdistance[16] 	2.6347731393446
scalar geant_cost_network.client[16] 	downloads[16] 	180904
scalar geant_cost_network.client[16] 	avg_time[16] 	0.018416162282
scalar geant_cost_network.client[16] 	interests_sent[16] 	180985
