version 2
run General-1-20141007-10:43:53-8383
attr D costaware0.1
attr F spr
attr R lru
attr a 1
attr configname General
attr csize 1e3
attr ctlg 1e5
attr datetime 20141007-10:43:53
attr experiment General
attr inifile omnetpp.ini
attr iterationvars "$net=abilene_cost, $rep=1, $priceratiovalue=10, $weights=0.333_0.333_0.334, $lambda=100, $a=1, $ctlg=1e5, $F=spr, $ttl=10, $D=costaware0.1, $xi=1, $R=lru, $csize=1e3, $pricebits=0, $window=60, $variance=0.05, $mytime=1800"
attr iterationvars2 "$net=abilene_cost, $rep=1, $priceratiovalue=10, $weights=0.333_0.333_0.334, $lambda=100, $a=1, $ctlg=1e5, $F=spr, $ttl=10, $D=costaware0.1, $xi=1, $R=lru, $csize=1e3, $pricebits=0, $window=60, $variance=0.05, $mytime=1800, $repetition=0"
attr lambda 100
attr measurement "$net=abilene_cost, $rep=1, $priceratiovalue=10, $weights=0.333_0.333_0.334, $lambda=100, $a=1, $ctlg=1e5, $F=spr, $ttl=10, $D=costaware0.1, $xi=1, $R=lru, $csize=1e3, $pricebits=0, $window=60, $variance=0.05, $mytime=1800"
attr mytime 1800
attr net abilene_cost
attr network networks.${net=abilene_cost,geant_cost}_network
attr pricebits 0
attr priceratiovalue 10
attr processid 8383
attr rep 1
attr repetition 0
attr replication #0
attr resultdir results
attr runnumber 1
attr seedset 1
attr ttl 10
attr variance 0.05
attr weights 0.333_0.333_0.334
attr window 60
attr xi 1

scalar . 	a 	1
scalar . 	csize 	1e3
scalar . 	ctlg 	1e5
scalar . 	lambda 	100
scalar . 	mytime 	1800
scalar . 	pricebits 	0
scalar . 	priceratiovalue 	10
scalar . 	rep 	1
scalar . 	ttl 	10
scalar . 	variance 	0.05
scalar . 	window 	60
scalar . 	xi 	1
scalar abilene_cost_network.content_distribution 	repo-0 	10
scalar abilene_cost_network.content_distribution 	repo-1 	7
scalar abilene_cost_network.content_distribution 	repo-2 	5
scalar abilene_cost_network.content_distribution 	client-0 	8
scalar abilene_cost_network.content_distribution 	client-1 	7
scalar abilene_cost_network.content_distribution 	client-2 	2
scalar abilene_cost_network.content_distribution 	repo-0_card 	33397
scalar abilene_cost_network.content_distribution 	repo-0_price 	0
scalar abilene_cost_network.content_distribution 	repo-1_card 	33041
scalar abilene_cost_network.content_distribution 	repo-1_price 	10
scalar abilene_cost_network.content_distribution 	repo-2_card 	33562
scalar abilene_cost_network.content_distribution 	repo-2_price 	1
scalar abilene_cost_network.statistics 	repo_popularity[0] 	0.36106327575467
scalar abilene_cost_network.statistics 	repo_popularity[1] 	0.3490006524958
scalar abilene_cost_network.statistics 	repo_popularity[2] 	0.28993607174955
scalar abilene_cost_network.statistics 	stabilization_time 	36060
scalar abilene_cost_network.statistics 	p_hit 	0.099458576300879
scalar abilene_cost_network.statistics 	interests 	138658
scalar abilene_cost_network.statistics 	data 	89581
scalar abilene_cost_network.statistics 	hdistance 	2.5674136078379
scalar abilene_cost_network.statistics 	avg_time 	0.012193126662
scalar abilene_cost_network.statistics 	downloads 	534229
scalar abilene_cost_network.statistics 	total_cost 	1103347
scalar abilene_cost_network.statistics 	total_replicas 	100000
scalar abilene_cost_network.statistics 	inner_hit 	0.28777921078788
scalar abilene_cost_network.node[0].core_layer 	interests[0] 	0
scalar abilene_cost_network.node[0].core_layer 	data[0] 	0
scalar abilene_cost_network.node[0].core_layer 	repo_int[0] 	380489
scalar abilene_cost_network.node[0].content_store 	p_hit[0] 	-nan
scalar abilene_cost_network.node[0].content_store 	hits[0] 	0
scalar abilene_cost_network.node[0].content_store 	misses[0] 	0
scalar abilene_cost_network.node[0].content_store 	decision_yes[0] 	0
scalar abilene_cost_network.node[0].content_store 	decision_no[0] 	0
scalar abilene_cost_network.node[0].content_store 	decision_ratio[0] 	0
scalar abilene_cost_network.node[0].content_store 	correction_factor[0] 	0.027225701061802
scalar abilene_cost_network.node[0].content_store 	kappa[0] 	1
scalar abilene_cost_network.node[1].core_layer 	interests[1] 	64393
scalar abilene_cost_network.node[1].core_layer 	data[1] 	64393
scalar abilene_cost_network.node[1].content_store 	p_hit[1] 	0
scalar abilene_cost_network.node[1].content_store 	hits[1] 	0
scalar abilene_cost_network.node[1].content_store 	misses[1] 	64393
scalar abilene_cost_network.node[1].content_store 	decision_yes[1] 	0
scalar abilene_cost_network.node[1].content_store 	decision_no[1] 	64393
scalar abilene_cost_network.node[1].content_store 	decision_ratio[1] 	0
scalar abilene_cost_network.node[1].content_store 	correction_factor[1] 	0.027225701061802
scalar abilene_cost_network.node[1].content_store 	kappa[1] 	1
scalar abilene_cost_network.node[2].core_layer 	interests[2] 	180760
scalar abilene_cost_network.node[2].core_layer 	data[2] 	170913
scalar abilene_cost_network.node[2].content_store 	p_hit[2] 	0.042437486169507
scalar abilene_cost_network.node[2].content_store 	hits[2] 	7671
scalar abilene_cost_network.node[2].content_store 	misses[2] 	173089
scalar abilene_cost_network.node[2].content_store 	decision_yes[2] 	9177
scalar abilene_cost_network.node[2].content_store 	decision_no[2] 	161736
scalar abilene_cost_network.node[2].content_store 	decision_ratio[2] 	0.053693984658862
scalar abilene_cost_network.node[2].content_store 	correction_factor[2] 	0.027225701061802
scalar abilene_cost_network.node[2].content_store 	kappa[2] 	1
scalar abilene_cost_network.node[3].core_layer 	interests[3] 	106519
scalar abilene_cost_network.node[3].core_layer 	data[3] 	99355
scalar abilene_cost_network.node[3].content_store 	p_hit[3] 	0.067255606980914
scalar abilene_cost_network.node[3].content_store 	hits[3] 	7164
scalar abilene_cost_network.node[3].content_store 	misses[3] 	99355
scalar abilene_cost_network.node[3].content_store 	decision_yes[3] 	9229
scalar abilene_cost_network.node[3].content_store 	decision_no[3] 	90126
scalar abilene_cost_network.node[3].content_store 	decision_ratio[3] 	0.092889134920236
scalar abilene_cost_network.node[3].content_store 	correction_factor[3] 	0.027225701061802
scalar abilene_cost_network.node[3].content_store 	kappa[3] 	1
scalar abilene_cost_network.node[4].core_layer 	interests[4] 	50821
scalar abilene_cost_network.node[4].core_layer 	data[4] 	45094
scalar abilene_cost_network.node[4].content_store 	p_hit[4] 	0.11268963617402
scalar abilene_cost_network.node[4].content_store 	hits[4] 	5727
scalar abilene_cost_network.node[4].content_store 	misses[4] 	45094
scalar abilene_cost_network.node[4].content_store 	decision_yes[4] 	820
scalar abilene_cost_network.node[4].content_store 	decision_no[4] 	44274
scalar abilene_cost_network.node[4].content_store 	decision_ratio[4] 	0.018184237370825
scalar abilene_cost_network.node[4].content_store 	correction_factor[4] 	0.027225701061802
scalar abilene_cost_network.node[4].content_store 	kappa[4] 	1
scalar abilene_cost_network.node[5].core_layer 	interests[5] 	129658
scalar abilene_cost_network.node[5].core_layer 	repo_load[5] 	88937
scalar abilene_cost_network.node[5].core_layer 	data[5] 	0
scalar abilene_cost_network.node[5].content_store 	p_hit[5] 	0.31406469326999
scalar abilene_cost_network.node[5].content_store 	hits[5] 	40721
scalar abilene_cost_network.node[5].content_store 	misses[5] 	88937
scalar abilene_cost_network.node[5].content_store 	decision_yes[5] 	2339
scalar abilene_cost_network.node[5].content_store 	decision_no[5] 	86598
scalar abilene_cost_network.node[5].content_store 	decision_ratio[5] 	0.026299515387297
scalar abilene_cost_network.node[5].content_store 	correction_factor[5] 	0.027225701061802
scalar abilene_cost_network.node[5].content_store 	kappa[5] 	1
scalar abilene_cost_network.node[6].core_layer 	interests[6] 	103454
scalar abilene_cost_network.node[6].core_layer 	data[6] 	84564
scalar abilene_cost_network.node[6].content_store 	p_hit[6] 	0.18259322984128
scalar abilene_cost_network.node[6].content_store 	hits[6] 	18890
scalar abilene_cost_network.node[6].content_store 	misses[6] 	84564
scalar abilene_cost_network.node[6].content_store 	decision_yes[6] 	1554
scalar abilene_cost_network.node[6].content_store 	decision_no[6] 	83010
scalar abilene_cost_network.node[6].content_store 	decision_ratio[6] 	0.018376614162055
scalar abilene_cost_network.node[6].content_store 	correction_factor[6] 	0.027225701061802
scalar abilene_cost_network.node[6].content_store 	kappa[6] 	1
scalar abilene_cost_network.node[7].core_layer 	interests[7] 	330404
scalar abilene_cost_network.node[7].core_layer 	repo_load[7] 	101441
scalar abilene_cost_network.node[7].core_layer 	data[7] 	167260
scalar abilene_cost_network.node[7].content_store 	p_hit[7] 	0.18177443372356
scalar abilene_cost_network.node[7].content_store 	hits[7] 	60059
scalar abilene_cost_network.node[7].content_store 	misses[7] 	270345
scalar abilene_cost_network.node[7].content_store 	decision_yes[7] 	29200
scalar abilene_cost_network.node[7].content_store 	decision_no[7] 	239501
scalar abilene_cost_network.node[7].content_store 	decision_ratio[7] 	0.10867097628963
scalar abilene_cost_network.node[7].content_store 	correction_factor[7] 	0.027225701061802
scalar abilene_cost_network.node[7].content_store 	kappa[7] 	1
scalar abilene_cost_network.node[8].core_layer 	interests[8] 	243401
scalar abilene_cost_network.node[8].core_layer 	data[8] 	228095
scalar abilene_cost_network.node[8].content_store 	p_hit[8] 	0.04710744820276
scalar abilene_cost_network.node[8].content_store 	hits[8] 	11466
scalar abilene_cost_network.node[8].content_store 	misses[8] 	231935
scalar abilene_cost_network.node[8].content_store 	decision_yes[8] 	9554
scalar abilene_cost_network.node[8].content_store 	decision_no[8] 	218541
scalar abilene_cost_network.node[8].content_store 	decision_ratio[8] 	0.041886056248493
scalar abilene_cost_network.node[8].content_store 	correction_factor[8] 	0.027225701061802
scalar abilene_cost_network.node[8].content_store 	kappa[8] 	1
scalar abilene_cost_network.node[9].core_layer 	interests[9] 	125717
scalar abilene_cost_network.node[9].core_layer 	data[9] 	125717
scalar abilene_cost_network.node[9].content_store 	p_hit[9] 	0
scalar abilene_cost_network.node[9].content_store 	hits[9] 	0
scalar abilene_cost_network.node[9].content_store 	misses[9] 	125717
scalar abilene_cost_network.node[9].content_store 	decision_yes[9] 	0
scalar abilene_cost_network.node[9].content_store 	decision_no[9] 	125717
scalar abilene_cost_network.node[9].content_store 	decision_ratio[9] 	0
scalar abilene_cost_network.node[9].content_store 	correction_factor[9] 	0.027225701061802
scalar abilene_cost_network.node[9].content_store 	kappa[9] 	1
scalar abilene_cost_network.node[10].core_layer 	interests[10] 	190111
scalar abilene_cost_network.node[10].core_layer 	repo_load[10] 	190111
scalar abilene_cost_network.node[10].core_layer 	data[10] 	0
scalar abilene_cost_network.node[10].content_store 	p_hit[10] 	0
scalar abilene_cost_network.node[10].content_store 	hits[10] 	0
scalar abilene_cost_network.node[10].content_store 	misses[10] 	190111
scalar abilene_cost_network.node[10].content_store 	decision_yes[10] 	0
scalar abilene_cost_network.node[10].content_store 	decision_no[10] 	190111
scalar abilene_cost_network.node[10].content_store 	decision_ratio[10] 	0
scalar abilene_cost_network.node[10].content_store 	correction_factor[10] 	0.027225701061802
scalar abilene_cost_network.node[10].content_store 	kappa[10] 	1
scalar abilene_cost_network.client[2] 	hdistance[2] 	2.8287752542221
scalar abilene_cost_network.client[2] 	downloads[2] 	178584
scalar abilene_cost_network.client[2] 	avg_time[2] 	0.012281589422
scalar abilene_cost_network.client[7] 	hdistance[7] 	2.3376837068777
scalar abilene_cost_network.client[7] 	downloads[7] 	178069
scalar abilene_cost_network.client[7] 	avg_time[7] 	0.011355330303
scalar abilene_cost_network.client[8] 	hdistance[8] 	2.5357818624139
scalar abilene_cost_network.client[8] 	downloads[8] 	177576
scalar abilene_cost_network.client[8] 	avg_time[8] 	0.012942460262
