version 2
run General-6-20140627-14:26:25-21896
attr D fix0.01
attr F nrr
attr R lru
attr a 1
attr configname General
attr csize 1e3
attr ctlg 1e5
attr datetime 20140627-14:26:25
attr experiment General
attr inifile omnetpp.ini
attr iterationvars "$net=abilene_cost, $rep=1, $priceratiovalue=10, $weights=0.333_0.333_0.334, $lambda=100, $a=1, $ctlg=1e5, $F=nrr, $ttl=1000, $D=fix0.01, $xi=1, $R=lru, $csize=1e3, $pricebits=0, $window=600, $variance=0.005, $mytime=1800"
attr iterationvars2 "$net=abilene_cost, $rep=1, $priceratiovalue=10, $weights=0.333_0.333_0.334, $lambda=100, $a=1, $ctlg=1e5, $F=nrr, $ttl=1000, $D=fix0.01, $xi=1, $R=lru, $csize=1e3, $pricebits=0, $window=600, $variance=0.005, $mytime=1800, $repetition=0"
attr lambda 100
attr measurement "$net=abilene_cost, $rep=1, $priceratiovalue=10, $weights=0.333_0.333_0.334, $lambda=100, $a=1, $ctlg=1e5, $F=nrr, $ttl=1000, $D=fix0.01, $xi=1, $R=lru, $csize=1e3, $pricebits=0, $window=600, $variance=0.005, $mytime=1800"
attr mytime 1800
attr net abilene_cost
attr network "networks.${net=geant_cost, abilene_cost}_network"
attr pricebits 0
attr priceratiovalue 10
attr processid 21896
attr rep 1
attr repetition 0
attr replication #0
attr resultdir results
attr runnumber 6
attr seedset 1
attr ttl 1000
attr variance 0.005
attr weights 0.333_0.333_0.334
attr window 600
attr xi 1

scalar . 	a 	1
scalar . 	csize 	1e3
scalar . 	ctlg 	1e5
scalar . 	lambda 	100
scalar . 	mytime 	1800
scalar . 	pricebits 	0
scalar . 	priceratiovalue 	10
scalar . 	rep 	1
scalar . 	ttl 	1000
scalar . 	variance 	0.005
scalar . 	window 	600
scalar . 	xi 	1
scalar abilene_cost_network.content_distribution 	repo-0 	11
scalar abilene_cost_network.content_distribution 	repo-1 	12
scalar abilene_cost_network.content_distribution 	repo-2 	13
scalar abilene_cost_network.content_distribution 	client-0 	5
scalar abilene_cost_network.content_distribution 	client-1 	0
scalar abilene_cost_network.content_distribution 	client-2 	9
scalar abilene_cost_network.content_distribution 	repo-0_card 	33396
scalar abilene_cost_network.content_distribution 	repo-1_card 	33039
scalar abilene_cost_network.content_distribution 	repo-2_card 	33565
scalar abilene_cost_network.statistics 	repo_popularity[0] 	0.28686251265602
scalar abilene_cost_network.statistics 	repo_popularity[1] 	0.2886063426465
scalar abilene_cost_network.statistics 	repo_popularity[2] 	0.42453114469748
scalar abilene_cost_network.statistics 	stabilization_time 	2243.9
scalar abilene_cost_network.node[1].face$o[4].channel 	price[1] 	0
scalar abilene_cost_network.node[1].face$o[4].channel 	represented_price[1] 	0
scalar abilene_cost_network.node[7].face$o[4].channel 	price[7] 	0
scalar abilene_cost_network.node[7].face$o[4].channel 	represented_price[7] 	0
scalar abilene_cost_network.node[10].face$o[4].channel 	price[10] 	0
scalar abilene_cost_network.node[10].face$o[4].channel 	represented_price[10] 	0
scalar abilene_cost_network.node[11].face$o[1].channel 	price[11] 	0
scalar abilene_cost_network.node[11].face$o[1].channel 	represented_price[11] 	0
scalar abilene_cost_network.node[12].face$o[1].channel 	price[12] 	1
scalar abilene_cost_network.node[12].face$o[1].channel 	represented_price[12] 	1
scalar abilene_cost_network.node[13].face$o[1].channel 	price[13] 	10
scalar abilene_cost_network.node[13].face$o[1].channel 	represented_price[13] 	10
scalar abilene_cost_network.statistics 	p_hit 	0.1899078057219
scalar abilene_cost_network.statistics 	interests 	110535.21428571
scalar abilene_cost_network.statistics 	data 	71951.714285714
scalar abilene_cost_network.statistics 	hdistance 	2.3213244635877
scalar abilene_cost_network.statistics 	avg_time 	0.009260379891
scalar abilene_cost_network.statistics 	downloads 	540086
scalar abilene_cost_network.statistics 	total_cost 	918345
scalar abilene_cost_network.statistics 	total_replicas 	100000
scalar abilene_cost_network.statistics 	inner_hit 	0.54414111826635
scalar abilene_cost_network.statistics 	interests_sent 	540172
scalar abilene_cost_network.node[0].core_layer 	interests[0] 	183559
scalar abilene_cost_network.node[0].core_layer 	data[0] 	110498
scalar abilene_cost_network.node[0].core_layer 	repo_int[0] 	246203
scalar abilene_cost_network.node[0].content_store 	p_hit[0] 	0.39784483463083
scalar abilene_cost_network.node[0].content_store 	hits[0] 	73028
scalar abilene_cost_network.node[0].content_store 	misses[0] 	110531
scalar abilene_cost_network.node[0].content_store 	decision_yes[0] 	1120
scalar abilene_cost_network.node[0].content_store 	decision_no[0] 	109378
scalar abilene_cost_network.node[0].content_store 	decision_ratio[0] 	0.010135930062083
scalar abilene_cost_network.node[1].core_layer 	interests[1] 	160214
scalar abilene_cost_network.node[1].core_layer 	data[1] 	151852
scalar abilene_cost_network.node[1].content_store 	p_hit[1] 	0.052198933925874
scalar abilene_cost_network.node[1].content_store 	hits[1] 	8363
scalar abilene_cost_network.node[1].content_store 	misses[1] 	151851
scalar abilene_cost_network.node[1].content_store 	decision_yes[1] 	1478
scalar abilene_cost_network.node[1].content_store 	decision_no[1] 	150374
scalar abilene_cost_network.node[1].content_store 	decision_ratio[1] 	0.0097331612359403
scalar abilene_cost_network.node[2].core_layer 	interests[2] 	105610
scalar abilene_cost_network.node[2].core_layer 	data[2] 	96003
scalar abilene_cost_network.node[2].content_store 	p_hit[2] 	0.090966764510936
scalar abilene_cost_network.node[2].content_store 	hits[2] 	9607
scalar abilene_cost_network.node[2].content_store 	misses[2] 	96003
scalar abilene_cost_network.node[2].content_store 	decision_yes[2] 	972
scalar abilene_cost_network.node[2].content_store 	decision_no[2] 	95031
scalar abilene_cost_network.node[2].content_store 	decision_ratio[2] 	0.010124683603637
scalar abilene_cost_network.node[3].core_layer 	interests[3] 	97930
scalar abilene_cost_network.node[3].core_layer 	data[3] 	90901
scalar abilene_cost_network.node[3].content_store 	p_hit[3] 	0.071775758194629
scalar abilene_cost_network.node[3].content_store 	hits[3] 	7029
scalar abilene_cost_network.node[3].content_store 	misses[3] 	90901
scalar abilene_cost_network.node[3].content_store 	decision_yes[3] 	886
scalar abilene_cost_network.node[3].content_store 	decision_no[3] 	90015
scalar abilene_cost_network.node[3].content_store 	decision_ratio[3] 	0.0097468674712049
scalar abilene_cost_network.node[4].core_layer 	interests[4] 	71510
scalar abilene_cost_network.node[4].core_layer 	data[4] 	64692
scalar abilene_cost_network.node[4].content_store 	p_hit[4] 	0.095343308628164
scalar abilene_cost_network.node[4].content_store 	hits[4] 	6818
scalar abilene_cost_network.node[4].content_store 	misses[4] 	64692
scalar abilene_cost_network.node[4].content_store 	decision_yes[4] 	694
scalar abilene_cost_network.node[4].content_store 	decision_no[4] 	63998
scalar abilene_cost_network.node[4].content_store 	decision_ratio[4] 	0.010727756136771
scalar abilene_cost_network.node[5].core_layer 	interests[5] 	180149
scalar abilene_cost_network.node[5].core_layer 	data[5] 	109455
scalar abilene_cost_network.node[5].content_store 	p_hit[5] 	0.39222532459242
scalar abilene_cost_network.node[5].content_store 	hits[5] 	70659
scalar abilene_cost_network.node[5].content_store 	misses[5] 	109490
scalar abilene_cost_network.node[5].content_store 	decision_yes[5] 	1069
scalar abilene_cost_network.node[5].content_store 	decision_no[5] 	108386
scalar abilene_cost_network.node[5].content_store 	decision_ratio[5] 	0.0097665707368325
scalar abilene_cost_network.node[6].core_layer 	interests[6] 	41851
scalar abilene_cost_network.node[6].core_layer 	data[6] 	32854
scalar abilene_cost_network.node[6].content_store 	p_hit[6] 	0.21497694200855
scalar abilene_cost_network.node[6].content_store 	hits[6] 	8997
scalar abilene_cost_network.node[6].content_store 	misses[6] 	32854
scalar abilene_cost_network.node[6].content_store 	decision_yes[6] 	346
scalar abilene_cost_network.node[6].content_store 	decision_no[6] 	32508
scalar abilene_cost_network.node[6].content_store 	decision_ratio[6] 	0.010531442137944
scalar abilene_cost_network.node[7].core_layer 	interests[7] 	89719
scalar abilene_cost_network.node[7].core_layer 	data[7] 	83243
scalar abilene_cost_network.node[7].content_store 	p_hit[7] 	0.072180920429341
scalar abilene_cost_network.node[7].content_store 	hits[7] 	6476
scalar abilene_cost_network.node[7].content_store 	misses[7] 	83243
scalar abilene_cost_network.node[7].content_store 	decision_yes[7] 	809
scalar abilene_cost_network.node[7].content_store 	decision_no[7] 	82434
scalar abilene_cost_network.node[7].content_store 	decision_ratio[7] 	0.0097185348918227
scalar abilene_cost_network.node[8].core_layer 	interests[8] 	49467
scalar abilene_cost_network.node[8].core_layer 	data[8] 	36417
scalar abilene_cost_network.node[8].content_store 	p_hit[8] 	0.263812238462
scalar abilene_cost_network.node[8].content_store 	hits[8] 	13050
scalar abilene_cost_network.node[8].content_store 	misses[8] 	36417
scalar abilene_cost_network.node[8].content_store 	decision_yes[8] 	352
scalar abilene_cost_network.node[8].content_store 	decision_no[8] 	36065
scalar abilene_cost_network.node[8].content_store 	decision_ratio[8] 	0.0096658154158772
scalar abilene_cost_network.node[9].core_layer 	interests[9] 	184175
scalar abilene_cost_network.node[9].core_layer 	data[9] 	109867
scalar abilene_cost_network.node[9].content_store 	p_hit[9] 	0.40336636351296
scalar abilene_cost_network.node[9].content_store 	hits[9] 	74290
scalar abilene_cost_network.node[9].content_store 	misses[9] 	109885
scalar abilene_cost_network.node[9].content_store 	decision_yes[9] 	1128
scalar abilene_cost_network.node[9].content_store 	decision_no[9] 	108739
scalar abilene_cost_network.node[9].content_store 	decision_ratio[9] 	0.010266959141507
scalar abilene_cost_network.node[10].core_layer 	interests[10] 	137106
scalar abilene_cost_network.node[10].core_layer 	data[10] 	121542
scalar abilene_cost_network.node[10].content_store 	p_hit[10] 	0.11351800796464
scalar abilene_cost_network.node[10].content_store 	hits[10] 	15564
scalar abilene_cost_network.node[10].content_store 	misses[10] 	121542
scalar abilene_cost_network.node[10].content_store 	decision_yes[10] 	1227
scalar abilene_cost_network.node[10].content_store 	decision_no[10] 	120315
scalar abilene_cost_network.node[10].content_store 	decision_ratio[10] 	0.010095275707163
scalar abilene_cost_network.node[11].core_layer 	interests[11] 	85388
scalar abilene_cost_network.node[11].core_layer 	repo_load[11] 	85388
scalar abilene_cost_network.node[11].core_layer 	data[11] 	0
scalar abilene_cost_network.node[11].content_store 	p_hit[11] 	0
scalar abilene_cost_network.node[11].content_store 	hits[11] 	0
scalar abilene_cost_network.node[11].content_store 	misses[11] 	85388
scalar abilene_cost_network.node[11].content_store 	decision_yes[11] 	0
scalar abilene_cost_network.node[11].content_store 	decision_no[11] 	85388
scalar abilene_cost_network.node[11].content_store 	decision_ratio[11] 	0
scalar abilene_cost_network.node[12].core_layer 	interests[12] 	76645
scalar abilene_cost_network.node[12].core_layer 	repo_load[12] 	76645
scalar abilene_cost_network.node[12].core_layer 	data[12] 	0
scalar abilene_cost_network.node[12].content_store 	p_hit[12] 	0
scalar abilene_cost_network.node[12].content_store 	hits[12] 	0
scalar abilene_cost_network.node[12].content_store 	misses[12] 	76645
scalar abilene_cost_network.node[12].content_store 	decision_yes[12] 	0
scalar abilene_cost_network.node[12].content_store 	decision_no[12] 	76645
scalar abilene_cost_network.node[12].content_store 	decision_ratio[12] 	0
scalar abilene_cost_network.node[13].core_layer 	interests[13] 	84170
scalar abilene_cost_network.node[13].core_layer 	repo_load[13] 	84170
scalar abilene_cost_network.node[13].core_layer 	data[13] 	0
scalar abilene_cost_network.node[13].content_store 	p_hit[13] 	0
scalar abilene_cost_network.node[13].content_store 	hits[13] 	0
scalar abilene_cost_network.node[13].content_store 	misses[13] 	84170
scalar abilene_cost_network.node[13].content_store 	decision_yes[13] 	0
scalar abilene_cost_network.node[13].content_store 	decision_no[13] 	84170
scalar abilene_cost_network.node[13].content_store 	decision_ratio[13] 	0
scalar abilene_cost_network.client[0] 	hdistance[0] 	2.1157108642139
scalar abilene_cost_network.client[0] 	downloads[0] 	180372
scalar abilene_cost_network.client[0] 	avg_time[0] 	0.008996807675
scalar abilene_cost_network.client[0] 	interests_sent[0] 	180405
scalar abilene_cost_network.client[5] 	hdistance[5] 	2.9176697668209
scalar abilene_cost_network.client[5] 	downloads[5] 	179776
scalar abilene_cost_network.client[5] 	avg_time[5] 	0.01069485639
scalar abilene_cost_network.client[5] 	interests_sent[5] 	179811
scalar abilene_cost_network.client[9] 	hdistance[9] 	1.9305927597284
scalar abilene_cost_network.client[9] 	downloads[9] 	179938
scalar abilene_cost_network.client[9] 	avg_time[9] 	0.008089475609
scalar abilene_cost_network.client[9] 	interests_sent[9] 	179956
