version 2
run General-1-20140930-18:47:30-22539
attr D never
attr F spr
attr R lru
attr a 1
attr configname General
attr csize 1e3
attr ctlg 1e5
attr datetime 20140930-18:47:30
attr experiment General
attr inifile omnetpp.ini
attr iterationvars "$net=tiger_cost, $rep=6, $priceratiovalue=10, $weights=0.333_0.333_0.334, $lambda=100, $a=1, $ctlg=1e5, $F=spr, $ttl=10, $D=never, $xi=1, $R=lru, $csize=1e3, $pricebits=0, $window=60, $variance=0.05, $mytime=1800"
attr iterationvars2 "$net=tiger_cost, $rep=6, $priceratiovalue=10, $weights=0.333_0.333_0.334, $lambda=100, $a=1, $ctlg=1e5, $F=spr, $ttl=10, $D=never, $xi=1, $R=lru, $csize=1e3, $pricebits=0, $window=60, $variance=0.05, $mytime=1800, $repetition=0"
attr lambda 100
attr measurement "$net=tiger_cost, $rep=6, $priceratiovalue=10, $weights=0.333_0.333_0.334, $lambda=100, $a=1, $ctlg=1e5, $F=spr, $ttl=10, $D=never, $xi=1, $R=lru, $csize=1e3, $pricebits=0, $window=60, $variance=0.05, $mytime=1800"
attr mytime 1800
attr net tiger_cost
attr network networks.${net=tiger_cost,dtelecom_cost}_network
attr pricebits 0
attr priceratiovalue 10
attr processid 22539
attr rep 6
attr repetition 0
attr replication #0
attr resultdir results
attr runnumber 1
attr seedset 6
attr ttl 10
attr variance 0.05
attr weights 0.333_0.333_0.334
attr window 60
attr xi 1

scalar . 	a 	1
scalar . 	csize 	1e3
scalar . 	ctlg 	1e5
scalar . 	lambda 	100
scalar . 	mytime 	1800
scalar . 	pricebits 	0
scalar . 	priceratiovalue 	10
scalar . 	rep 	6
scalar . 	ttl 	10
scalar . 	variance 	0.05
scalar . 	window 	60
scalar . 	xi 	1
scalar tiger_cost_network.content_distribution 	repo-0 	14
scalar tiger_cost_network.content_distribution 	repo-1 	21
scalar tiger_cost_network.content_distribution 	repo-2 	2
scalar tiger_cost_network.content_distribution 	client-0 	19
scalar tiger_cost_network.content_distribution 	client-1 	20
scalar tiger_cost_network.content_distribution 	client-2 	10
scalar tiger_cost_network.content_distribution 	repo-0_card 	33435
scalar tiger_cost_network.content_distribution 	repo-0_price 	0
scalar tiger_cost_network.content_distribution 	repo-1_card 	33142
scalar tiger_cost_network.content_distribution 	repo-1_price 	1
scalar tiger_cost_network.content_distribution 	repo-2_card 	33423
scalar tiger_cost_network.content_distribution 	repo-2_price 	10
scalar tiger_cost_network.statistics 	repo_popularity[0] 	0.40396321781755
scalar tiger_cost_network.statistics 	repo_popularity[1] 	0.26951999071203
scalar tiger_cost_network.statistics 	repo_popularity[2] 	0.32651679147044
scalar tiger_cost_network.statistics 	stabilization_time 	36060
scalar tiger_cost_network.statistics 	p_hit 	0
scalar tiger_cost_network.statistics 	interests 	102339.90909091
scalar tiger_cost_network.statistics 	data 	77793.227272727
scalar tiger_cost_network.statistics 	hdistance 	4.1758024115005
scalar tiger_cost_network.statistics 	avg_time 	0.001122343417
scalar tiger_cost_network.statistics 	downloads 	539095
scalar tiger_cost_network.statistics 	total_cost 	1902778
scalar tiger_cost_network.statistics 	total_replicas 	100000
scalar tiger_cost_network.statistics 	inner_hit 	0.0003487325981506
scalar tiger_cost_network.node[0].core_layer 	interests[0] 	130807
scalar tiger_cost_network.node[0].core_layer 	data[0] 	130807
scalar tiger_cost_network.node[0].core_layer 	repo_int[0] 	538907
scalar tiger_cost_network.node[0].content_store 	p_hit[0] 	0
scalar tiger_cost_network.node[0].content_store 	hits[0] 	0
scalar tiger_cost_network.node[0].content_store 	misses[0] 	130807
scalar tiger_cost_network.node[0].content_store 	decision_yes[0] 	0
scalar tiger_cost_network.node[0].content_store 	decision_no[0] 	130807
scalar tiger_cost_network.node[0].content_store 	decision_ratio[0] 	0
scalar tiger_cost_network.node[1].core_layer 	interests[1] 	189858
scalar tiger_cost_network.node[1].core_layer 	data[1] 	189805
scalar tiger_cost_network.node[1].content_store 	p_hit[1] 	0
scalar tiger_cost_network.node[1].content_store 	hits[1] 	0
scalar tiger_cost_network.node[1].content_store 	misses[1] 	189858
scalar tiger_cost_network.node[1].content_store 	decision_yes[1] 	0
scalar tiger_cost_network.node[1].content_store 	decision_no[1] 	189805
scalar tiger_cost_network.node[1].content_store 	decision_ratio[1] 	0
scalar tiger_cost_network.node[2].core_layer 	interests[2] 	248110
scalar tiger_cost_network.node[2].core_layer 	repo_load[2] 	175675
scalar tiger_cost_network.node[2].core_layer 	data[2] 	72435
scalar tiger_cost_network.node[2].content_store 	p_hit[2] 	0
scalar tiger_cost_network.node[2].content_store 	hits[2] 	0
scalar tiger_cost_network.node[2].content_store 	misses[2] 	248110
scalar tiger_cost_network.node[2].content_store 	decision_yes[2] 	0
scalar tiger_cost_network.node[2].content_store 	decision_no[2] 	248110
scalar tiger_cost_network.node[2].content_store 	decision_ratio[2] 	0
scalar tiger_cost_network.node[3].core_layer 	interests[3] 	144837
scalar tiger_cost_network.node[3].core_layer 	data[3] 	144702
scalar tiger_cost_network.node[3].content_store 	p_hit[3] 	0
scalar tiger_cost_network.node[3].content_store 	hits[3] 	0
scalar tiger_cost_network.node[3].content_store 	misses[3] 	144837
scalar tiger_cost_network.node[3].content_store 	decision_yes[3] 	0
scalar tiger_cost_network.node[3].content_store 	decision_no[3] 	144702
scalar tiger_cost_network.node[3].content_store 	decision_ratio[3] 	0
scalar tiger_cost_network.node[4].core_layer 	interests[4] 	72402
scalar tiger_cost_network.node[4].core_layer 	data[4] 	72402
scalar tiger_cost_network.node[4].content_store 	p_hit[4] 	0
scalar tiger_cost_network.node[4].content_store 	hits[4] 	0
scalar tiger_cost_network.node[4].content_store 	misses[4] 	72402
scalar tiger_cost_network.node[4].content_store 	decision_yes[4] 	0
scalar tiger_cost_network.node[4].content_store 	decision_no[4] 	72402
scalar tiger_cost_network.node[4].content_store 	decision_ratio[4] 	0
scalar tiger_cost_network.node[5].core_layer 	interests[5] 	0
scalar tiger_cost_network.node[5].core_layer 	data[5] 	0
scalar tiger_cost_network.node[5].content_store 	p_hit[5] 	-nan
scalar tiger_cost_network.node[5].content_store 	hits[5] 	0
scalar tiger_cost_network.node[5].content_store 	misses[5] 	0
scalar tiger_cost_network.node[5].content_store 	decision_yes[5] 	0
scalar tiger_cost_network.node[5].content_store 	decision_no[5] 	0
scalar tiger_cost_network.node[5].content_store 	decision_ratio[5] 	0
scalar tiger_cost_network.node[6].core_layer 	interests[6] 	0
scalar tiger_cost_network.node[6].core_layer 	data[6] 	0
scalar tiger_cost_network.node[6].content_store 	p_hit[6] 	-nan
scalar tiger_cost_network.node[6].content_store 	hits[6] 	0
scalar tiger_cost_network.node[6].content_store 	misses[6] 	0
scalar tiger_cost_network.node[6].content_store 	decision_yes[6] 	0
scalar tiger_cost_network.node[6].content_store 	decision_no[6] 	0
scalar tiger_cost_network.node[6].content_store 	decision_ratio[6] 	0
scalar tiger_cost_network.node[7].core_layer 	interests[7] 	58484
scalar tiger_cost_network.node[7].core_layer 	data[7] 	58484
scalar tiger_cost_network.node[7].content_store 	p_hit[7] 	0
scalar tiger_cost_network.node[7].content_store 	hits[7] 	0
scalar tiger_cost_network.node[7].content_store 	misses[7] 	58484
scalar tiger_cost_network.node[7].content_store 	decision_yes[7] 	0
scalar tiger_cost_network.node[7].content_store 	decision_no[7] 	58484
scalar tiger_cost_network.node[7].content_store 	decision_ratio[7] 	0
scalar tiger_cost_network.node[8].core_layer 	interests[8] 	58484
scalar tiger_cost_network.node[8].core_layer 	data[8] 	58484
scalar tiger_cost_network.node[8].content_store 	p_hit[8] 	0
scalar tiger_cost_network.node[8].content_store 	hits[8] 	0
scalar tiger_cost_network.node[8].content_store 	misses[8] 	58484
scalar tiger_cost_network.node[8].content_store 	decision_yes[8] 	0
scalar tiger_cost_network.node[8].content_store 	decision_no[8] 	58484
scalar tiger_cost_network.node[8].content_store 	decision_ratio[8] 	0
scalar tiger_cost_network.node[9].core_layer 	interests[9] 	48709
scalar tiger_cost_network.node[9].core_layer 	data[9] 	48709
scalar tiger_cost_network.node[9].content_store 	p_hit[9] 	0
scalar tiger_cost_network.node[9].content_store 	hits[9] 	0
scalar tiger_cost_network.node[9].content_store 	misses[9] 	48709
scalar tiger_cost_network.node[9].content_store 	decision_yes[9] 	0
scalar tiger_cost_network.node[9].content_store 	decision_no[9] 	48709
scalar tiger_cost_network.node[9].content_store 	decision_ratio[9] 	0
scalar tiger_cost_network.node[10].core_layer 	interests[10] 	180383
scalar tiger_cost_network.node[10].core_layer 	data[10] 	180083
scalar tiger_cost_network.node[10].content_store 	p_hit[10] 	0
scalar tiger_cost_network.node[10].content_store 	hits[10] 	0
scalar tiger_cost_network.node[10].content_store 	misses[10] 	180383
scalar tiger_cost_network.node[10].content_store 	decision_yes[10] 	0
scalar tiger_cost_network.node[10].content_store 	decision_no[10] 	180083
scalar tiger_cost_network.node[10].content_store 	decision_ratio[10] 	0
scalar tiger_cost_network.node[11].core_layer 	interests[11] 	0
scalar tiger_cost_network.node[11].core_layer 	data[11] 	0
scalar tiger_cost_network.node[11].content_store 	p_hit[11] 	-nan
scalar tiger_cost_network.node[11].content_store 	hits[11] 	0
scalar tiger_cost_network.node[11].content_store 	misses[11] 	0
scalar tiger_cost_network.node[11].content_store 	decision_yes[11] 	0
scalar tiger_cost_network.node[11].content_store 	decision_no[11] 	0
scalar tiger_cost_network.node[11].content_store 	decision_ratio[11] 	0
scalar tiger_cost_network.node[12].core_layer 	interests[12] 	130807
scalar tiger_cost_network.node[12].core_layer 	data[12] 	130807
scalar tiger_cost_network.node[12].content_store 	p_hit[12] 	0
scalar tiger_cost_network.node[12].content_store 	hits[12] 	0
scalar tiger_cost_network.node[12].content_store 	misses[12] 	130807
scalar tiger_cost_network.node[12].content_store 	decision_yes[12] 	0
scalar tiger_cost_network.node[12].content_store 	decision_no[12] 	130807
scalar tiger_cost_network.node[12].content_store 	decision_ratio[12] 	0
scalar tiger_cost_network.node[13].core_layer 	interests[13] 	72502
scalar tiger_cost_network.node[13].core_layer 	data[13] 	72502
scalar tiger_cost_network.node[13].content_store 	p_hit[13] 	0
scalar tiger_cost_network.node[13].content_store 	hits[13] 	0
scalar tiger_cost_network.node[13].content_store 	misses[13] 	72502
scalar tiger_cost_network.node[13].content_store 	decision_yes[13] 	0
scalar tiger_cost_network.node[13].content_store 	decision_no[13] 	72502
scalar tiger_cost_network.node[13].content_store 	decision_ratio[13] 	0
scalar tiger_cost_network.node[14].core_layer 	interests[14] 	217204
scalar tiger_cost_network.node[14].core_layer 	repo_load[14] 	217204
scalar tiger_cost_network.node[14].core_layer 	data[14] 	0
scalar tiger_cost_network.node[14].content_store 	p_hit[14] 	0
scalar tiger_cost_network.node[14].content_store 	hits[14] 	0
scalar tiger_cost_network.node[14].content_store 	misses[14] 	217204
scalar tiger_cost_network.node[14].content_store 	decision_yes[14] 	0
scalar tiger_cost_network.node[14].content_store 	decision_no[14] 	217204
scalar tiger_cost_network.node[14].content_store 	decision_ratio[14] 	0
scalar tiger_cost_network.node[15].core_layer 	interests[15] 	0
scalar tiger_cost_network.node[15].core_layer 	data[15] 	0
scalar tiger_cost_network.node[15].content_store 	p_hit[15] 	-nan
scalar tiger_cost_network.node[15].content_store 	hits[15] 	0
scalar tiger_cost_network.node[15].content_store 	misses[15] 	0
scalar tiger_cost_network.node[15].content_store 	decision_yes[15] 	0
scalar tiger_cost_network.node[15].content_store 	decision_no[15] 	0
scalar tiger_cost_network.node[15].content_store 	decision_ratio[15] 	0
scalar tiger_cost_network.node[16].core_layer 	interests[16] 	0
scalar tiger_cost_network.node[16].core_layer 	data[16] 	0
scalar tiger_cost_network.node[16].content_store 	p_hit[16] 	-nan
scalar tiger_cost_network.node[16].content_store 	hits[16] 	0
scalar tiger_cost_network.node[16].content_store 	misses[16] 	0
scalar tiger_cost_network.node[16].content_store 	decision_yes[16] 	0
scalar tiger_cost_network.node[16].content_store 	decision_no[16] 	0
scalar tiger_cost_network.node[16].content_store 	decision_ratio[16] 	0
scalar tiger_cost_network.node[17].core_layer 	interests[17] 	72402
scalar tiger_cost_network.node[17].core_layer 	data[17] 	72402
scalar tiger_cost_network.node[17].content_store 	p_hit[17] 	0
scalar tiger_cost_network.node[17].content_store 	hits[17] 	0
scalar tiger_cost_network.node[17].content_store 	misses[17] 	72402
scalar tiger_cost_network.node[17].content_store 	decision_yes[17] 	0
scalar tiger_cost_network.node[17].content_store 	decision_no[17] 	72402
scalar tiger_cost_network.node[17].content_store 	decision_ratio[17] 	0
scalar tiger_cost_network.node[18].core_layer 	interests[18] 	72402
scalar tiger_cost_network.node[18].core_layer 	data[18] 	72402
scalar tiger_cost_network.node[18].content_store 	p_hit[18] 	0
scalar tiger_cost_network.node[18].content_store 	hits[18] 	0
scalar tiger_cost_network.node[18].content_store 	misses[18] 	72402
scalar tiger_cost_network.node[18].content_store 	decision_yes[18] 	0
scalar tiger_cost_network.node[18].content_store 	decision_no[18] 	72402
scalar tiger_cost_network.node[18].content_store 	decision_ratio[18] 	0
scalar tiger_cost_network.node[19].core_layer 	interests[19] 	228325
scalar tiger_cost_network.node[19].core_layer 	data[19] 	228126
scalar tiger_cost_network.node[19].content_store 	p_hit[19] 	0
scalar tiger_cost_network.node[19].content_store 	hits[19] 	0
scalar tiger_cost_network.node[19].content_store 	misses[19] 	228325
scalar tiger_cost_network.node[19].content_store 	decision_yes[19] 	0
scalar tiger_cost_network.node[19].content_store 	decision_no[19] 	228126
scalar tiger_cost_network.node[19].content_store 	decision_ratio[19] 	0
scalar tiger_cost_network.node[20].core_layer 	interests[20] 	179734
scalar tiger_cost_network.node[20].core_layer 	data[20] 	179301
scalar tiger_cost_network.node[20].content_store 	p_hit[20] 	0
scalar tiger_cost_network.node[20].content_store 	hits[20] 	0
scalar tiger_cost_network.node[20].content_store 	misses[20] 	179734
scalar tiger_cost_network.node[20].content_store 	decision_yes[20] 	0
scalar tiger_cost_network.node[20].content_store 	decision_no[20] 	179301
scalar tiger_cost_network.node[20].content_store 	decision_ratio[20] 	0
scalar tiger_cost_network.node[21].core_layer 	interests[21] 	146028
scalar tiger_cost_network.node[21].core_layer 	repo_load[21] 	146028
scalar tiger_cost_network.node[21].core_layer 	data[21] 	0
scalar tiger_cost_network.node[21].content_store 	p_hit[21] 	0
scalar tiger_cost_network.node[21].content_store 	hits[21] 	0
scalar tiger_cost_network.node[21].content_store 	misses[21] 	146028
scalar tiger_cost_network.node[21].content_store 	decision_yes[21] 	0
scalar tiger_cost_network.node[21].content_store 	decision_no[21] 	146028
scalar tiger_cost_network.node[21].content_store 	decision_ratio[21] 	0
scalar tiger_cost_network.client[10] 	hdistance[10] 	3.8044623867883
scalar tiger_cost_network.client[10] 	downloads[10] 	180083
scalar tiger_cost_network.client[10] 	avg_time[10] 	0.001014897165
scalar tiger_cost_network.client[19] 	hdistance[19] 	3.8591850248454
scalar tiger_cost_network.client[19] 	downloads[19] 	179711
scalar tiger_cost_network.client[19] 	avg_time[19] 	0.000861452971
scalar tiger_cost_network.client[20] 	hdistance[20] 	4.8637598228677
scalar tiger_cost_network.client[20] 	downloads[20] 	179301
scalar tiger_cost_network.client[20] 	avg_time[20] 	0.001490680115
