version 2
run General-11-20150404-05:13:24-21716
attr D fix0.01
attr F nrr
attr R lru
attr a 0.8
attr configname General
attr csize 1e3
attr ctlg 1e5
attr datetime 20150404-05:13:24
attr experiment General
attr inifile omnetpp.ini
attr iterationvars "$rep=13, $net=cost_scenario, $lambda=100, $a=0.8, $ctlg=1e5, $F=nrr, $ttl=10, $D=fix0.01, $R=lru, $csize=1e3, $window=60, $variance=0.05, $mytime=1800000, $kappa=1, $priceratiovalue=10, $splits=0.333_0.333_0.334, $pricebits=0"
attr iterationvars2 "$rep=13, $net=cost_scenario, $lambda=100, $a=0.8, $ctlg=1e5, $F=nrr, $ttl=10, $D=fix0.01, $R=lru, $csize=1e3, $window=60, $variance=0.05, $mytime=1800000, $kappa=1, $priceratiovalue=10, $splits=0.333_0.333_0.334, $pricebits=0, $repetition=0"
attr kappa 1
attr lambda 100
attr measurement "$rep=13, $net=cost_scenario, $lambda=100, $a=0.8, $ctlg=1e5, $F=nrr, $ttl=10, $D=fix0.01, $R=lru, $csize=1e3, $window=60, $variance=0.05, $mytime=1800000, $kappa=1, $priceratiovalue=10, $splits=0.333_0.333_0.334, $pricebits=0"
attr mytime 1800000
attr net cost_scenario
attr network networks.${net=cost_scenario}_network
attr pricebits 0
attr priceratiovalue 10
attr processid 21716
attr rep 13
attr repetition 0
attr replication #0
attr resultdir results
attr runnumber 11
attr seedset 13
attr splits 0.333_0.333_0.334
attr ttl 10
attr variance 0.05
attr window 60

scalar . 	a 	0.8
scalar . 	csize 	1e3
scalar . 	ctlg 	1e5
scalar . 	kappa 	1
scalar . 	lambda 	100
scalar . 	mytime 	1800000
scalar . 	pricebits 	0
scalar . 	priceratiovalue 	10
scalar . 	rep 	13
scalar . 	ttl 	10
scalar . 	variance 	0.05
scalar . 	window 	60
scalar cost_scenario_network.content_distribution 	repo-0 	1
scalar cost_scenario_network.content_distribution 	repo-1 	2
scalar cost_scenario_network.content_distribution 	repo-2 	3
scalar cost_scenario_network.content_distribution 	client-0 	0
scalar cost_scenario_network.content_distribution 	repo-0_card 	33151
scalar cost_scenario_network.content_distribution 	repo-0_price 	1
scalar cost_scenario_network.content_distribution 	repo-1_card 	33481
scalar cost_scenario_network.content_distribution 	repo-1_price 	10
scalar cost_scenario_network.content_distribution 	repo-2_card 	33368
scalar cost_scenario_network.content_distribution 	repo-2_price 	0
scalar cost_scenario_network.statistics 	repo_popularity[0] 	0.35487466214171
scalar cost_scenario_network.statistics 	repo_popularity[1] 	0.32160258144336
scalar cost_scenario_network.statistics 	repo_popularity[2] 	0.32352275641492
scalar cost_scenario_network.statistics 	stabilization_time 	1245.8
scalar cost_scenario_network.statistics 	p_hit 	0.18234284030236
scalar cost_scenario_network.statistics 	interests 	76119213
scalar cost_scenario_network.statistics 	data 	31119709.75
scalar cost_scenario_network.statistics 	hdistance 	1.3831134791474
scalar cost_scenario_network.statistics 	avg_time 	0
scalar cost_scenario_network.statistics 	downloads 	179998013
scalar cost_scenario_network.statistics 	total_cost 	460683599
scalar cost_scenario_network.statistics 	total_replicas 	100000
scalar cost_scenario_network.statistics 	inner_hit 	0.30844326042644
scalar cost_scenario_network.statistics 	interests_sent 	179998013
scalar cost_scenario_network.node[0].core_layer 	interests[0] 	179998013
scalar cost_scenario_network.node[0].core_layer 	data[0] 	124478839
scalar cost_scenario_network.node[0].core_layer 	repo_int[0] 	124478839
scalar cost_scenario_network.node[0].content_store 	p_hit[0] 	0.30844326042644
scalar cost_scenario_network.node[0].content_store 	hits[0] 	55519174
scalar cost_scenario_network.node[0].content_store 	misses[0] 	124478839
scalar cost_scenario_network.node[0].content_store 	decision_yes[0] 	1244298
scalar cost_scenario_network.node[0].content_store 	decision_no[0] 	123234541
scalar cost_scenario_network.node[0].content_store 	decision_ratio[0] 	0.0099960604549019
scalar cost_scenario_network.node[0].content_store 	cache_value[0] 	46.267025202173
scalar cost_scenario_network.node[0].content_store 	average_price_of_cache[0] 	3.696
scalar cost_scenario_network.node[1].core_layer 	interests[1] 	40784959
scalar cost_scenario_network.node[1].core_layer 	repo_load[1] 	40784959
scalar cost_scenario_network.node[1].core_layer 	data[1] 	0
scalar cost_scenario_network.node[1].content_store 	p_hit[1] 	0
scalar cost_scenario_network.node[1].content_store 	hits[1] 	0
scalar cost_scenario_network.node[1].content_store 	misses[1] 	40784959
scalar cost_scenario_network.node[1].content_store 	decision_yes[1] 	0
scalar cost_scenario_network.node[1].content_store 	decision_no[1] 	40784959
scalar cost_scenario_network.node[1].content_store 	decision_ratio[1] 	0
scalar cost_scenario_network.node[1].content_store 	cache_value[1] 	6.9533224113214e-310
scalar cost_scenario_network.node[1].content_store 	average_price_of_cache[1] 	-nan
scalar cost_scenario_network.node[2].core_layer 	interests[2] 	41989864
scalar cost_scenario_network.node[2].core_layer 	repo_load[2] 	41989864
scalar cost_scenario_network.node[2].core_layer 	data[2] 	0
scalar cost_scenario_network.node[2].content_store 	p_hit[2] 	0
scalar cost_scenario_network.node[2].content_store 	hits[2] 	0
scalar cost_scenario_network.node[2].content_store 	misses[2] 	41989864
scalar cost_scenario_network.node[2].content_store 	decision_yes[2] 	0
scalar cost_scenario_network.node[2].content_store 	decision_no[2] 	41989864
scalar cost_scenario_network.node[2].content_store 	decision_ratio[2] 	0
scalar cost_scenario_network.node[2].content_store 	cache_value[2] 	6.9533224113214e-310
scalar cost_scenario_network.node[2].content_store 	average_price_of_cache[2] 	-nan
scalar cost_scenario_network.node[3].core_layer 	interests[3] 	41704016
scalar cost_scenario_network.node[3].core_layer 	repo_load[3] 	41704016
scalar cost_scenario_network.node[3].core_layer 	data[3] 	0
scalar cost_scenario_network.node[3].content_store 	p_hit[3] 	0
scalar cost_scenario_network.node[3].content_store 	hits[3] 	0
scalar cost_scenario_network.node[3].content_store 	misses[3] 	41704016
scalar cost_scenario_network.node[3].content_store 	decision_yes[3] 	0
scalar cost_scenario_network.node[3].content_store 	decision_no[3] 	41704016
scalar cost_scenario_network.node[3].content_store 	decision_ratio[3] 	0
scalar cost_scenario_network.node[3].content_store 	cache_value[3] 	6.9533224113214e-310
scalar cost_scenario_network.node[3].content_store 	average_price_of_cache[3] 	-nan
scalar cost_scenario_network.client[0] 	hdistance[0] 	1.3831134791474
scalar cost_scenario_network.client[0] 	downloads[0] 	179998013
scalar cost_scenario_network.client[0] 	avg_time[0] 	0
scalar cost_scenario_network.client[0] 	interests_sent[0] 	179998013
