version 2
run General-11-20150404-02:54:14-27284
attr D fix0.01
attr F nrr
attr R lru
attr a 0.8
attr configname General
attr csize 1e3
attr ctlg 1e5
attr datetime 20150404-02:54:14
attr experiment General
attr inifile omnetpp.ini
attr iterationvars "$rep=2, $net=cost_scenario, $lambda=100, $a=0.8, $ctlg=1e5, $F=nrr, $ttl=10, $D=fix0.01, $R=lru, $csize=1e3, $window=60, $variance=0.05, $mytime=1800000, $kappa=1, $priceratiovalue=10, $splits=0.333_0.333_0.334, $pricebits=0"
attr iterationvars2 "$rep=2, $net=cost_scenario, $lambda=100, $a=0.8, $ctlg=1e5, $F=nrr, $ttl=10, $D=fix0.01, $R=lru, $csize=1e3, $window=60, $variance=0.05, $mytime=1800000, $kappa=1, $priceratiovalue=10, $splits=0.333_0.333_0.334, $pricebits=0, $repetition=0"
attr kappa 1
attr lambda 100
attr measurement "$rep=2, $net=cost_scenario, $lambda=100, $a=0.8, $ctlg=1e5, $F=nrr, $ttl=10, $D=fix0.01, $R=lru, $csize=1e3, $window=60, $variance=0.05, $mytime=1800000, $kappa=1, $priceratiovalue=10, $splits=0.333_0.333_0.334, $pricebits=0"
attr mytime 1800000
attr net cost_scenario
attr network networks.${net=cost_scenario}_network
attr pricebits 0
attr priceratiovalue 10
attr processid 27284
attr rep 2
attr repetition 0
attr replication #0
attr resultdir results
attr runnumber 11
attr seedset 2
attr splits 0.333_0.333_0.334
attr ttl 10
attr variance 0.05
attr window 60

scalar . 	a 	0.8
scalar . 	csize 	1e3
scalar . 	ctlg 	1e5
scalar . 	kappa 	1
scalar . 	lambda 	100
scalar . 	mytime 	1800000
scalar . 	pricebits 	0
scalar . 	priceratiovalue 	10
scalar . 	rep 	2
scalar . 	ttl 	10
scalar . 	variance 	0.05
scalar . 	window 	60
scalar cost_scenario_network.content_distribution 	repo-0 	1
scalar cost_scenario_network.content_distribution 	repo-1 	2
scalar cost_scenario_network.content_distribution 	repo-2 	3
scalar cost_scenario_network.content_distribution 	client-0 	0
scalar cost_scenario_network.content_distribution 	repo-0_card 	33328
scalar cost_scenario_network.content_distribution 	repo-0_price 	10
scalar cost_scenario_network.content_distribution 	repo-1_card 	33052
scalar cost_scenario_network.content_distribution 	repo-1_price 	0
scalar cost_scenario_network.content_distribution 	repo-2_card 	33620
scalar cost_scenario_network.content_distribution 	repo-2_price 	1
scalar cost_scenario_network.statistics 	repo_popularity[0] 	0.32538011653141
scalar cost_scenario_network.statistics 	repo_popularity[1] 	0.32970206843494
scalar cost_scenario_network.statistics 	repo_popularity[2] 	0.34491781503364
scalar cost_scenario_network.statistics 	stabilization_time 	1197.1
scalar cost_scenario_network.statistics 	p_hit 	0.18229438627822
scalar cost_scenario_network.statistics 	interests 	76122907.75
scalar cost_scenario_network.statistics 	data 	31123064.5
scalar cost_scenario_network.statistics 	hdistance 	1.3832521294395
scalar cost_scenario_network.statistics 	avg_time 	0
scalar cost_scenario_network.statistics 	downloads 	179999373
scalar cost_scenario_network.statistics 	total_cost 	458621636
scalar cost_scenario_network.statistics 	total_replicas 	100000
scalar cost_scenario_network.statistics 	inner_hit 	0.30837393528032
scalar cost_scenario_network.statistics 	interests_sent 	179999373
scalar cost_scenario_network.node[0].core_layer 	interests[0] 	179999373
scalar cost_scenario_network.node[0].core_layer 	data[0] 	124492258
scalar cost_scenario_network.node[0].core_layer 	repo_int[0] 	124492258
scalar cost_scenario_network.node[0].content_store 	p_hit[0] 	0.30837393528032
scalar cost_scenario_network.node[0].content_store 	hits[0] 	55507115
scalar cost_scenario_network.node[0].content_store 	misses[0] 	124492258
scalar cost_scenario_network.node[0].content_store 	decision_yes[0] 	1247255
scalar cost_scenario_network.node[0].content_store 	decision_no[0] 	123245003
scalar cost_scenario_network.node[0].content_store 	decision_ratio[0] 	0.010018735462249
scalar cost_scenario_network.node[0].content_store 	cache_value[0] 	48.315642788161
scalar cost_scenario_network.node[0].content_store 	average_price_of_cache[0] 	3.764
scalar cost_scenario_network.node[1].core_layer 	interests[1] 	41675419
scalar cost_scenario_network.node[1].core_layer 	repo_load[1] 	41675419
scalar cost_scenario_network.node[1].core_layer 	data[1] 	0
scalar cost_scenario_network.node[1].content_store 	p_hit[1] 	0
scalar cost_scenario_network.node[1].content_store 	hits[1] 	0
scalar cost_scenario_network.node[1].content_store 	misses[1] 	41675419
scalar cost_scenario_network.node[1].content_store 	decision_yes[1] 	0
scalar cost_scenario_network.node[1].content_store 	decision_no[1] 	41675419
scalar cost_scenario_network.node[1].content_store 	decision_ratio[1] 	0
scalar cost_scenario_network.node[1].content_store 	cache_value[1] 	1.2570753331174e-316
scalar cost_scenario_network.node[1].content_store 	average_price_of_cache[1] 	-nan
scalar cost_scenario_network.node[2].core_layer 	interests[2] 	40949393
scalar cost_scenario_network.node[2].core_layer 	repo_load[2] 	40949393
scalar cost_scenario_network.node[2].core_layer 	data[2] 	0
scalar cost_scenario_network.node[2].content_store 	p_hit[2] 	0
scalar cost_scenario_network.node[2].content_store 	hits[2] 	0
scalar cost_scenario_network.node[2].content_store 	misses[2] 	40949393
scalar cost_scenario_network.node[2].content_store 	decision_yes[2] 	0
scalar cost_scenario_network.node[2].content_store 	decision_no[2] 	40949393
scalar cost_scenario_network.node[2].content_store 	decision_ratio[2] 	0
scalar cost_scenario_network.node[2].content_store 	cache_value[2] 	1.2572342246291e-316
scalar cost_scenario_network.node[2].content_store 	average_price_of_cache[2] 	-nan
scalar cost_scenario_network.node[3].core_layer 	interests[3] 	41867446
scalar cost_scenario_network.node[3].core_layer 	repo_load[3] 	41867446
scalar cost_scenario_network.node[3].core_layer 	data[3] 	0
scalar cost_scenario_network.node[3].content_store 	p_hit[3] 	0
scalar cost_scenario_network.node[3].content_store 	hits[3] 	0
scalar cost_scenario_network.node[3].content_store 	misses[3] 	41867446
scalar cost_scenario_network.node[3].content_store 	decision_yes[3] 	0
scalar cost_scenario_network.node[3].content_store 	decision_no[3] 	41867446
scalar cost_scenario_network.node[3].content_store 	decision_ratio[3] 	0
scalar cost_scenario_network.node[3].content_store 	cache_value[3] 	1.2573931161408e-316
scalar cost_scenario_network.node[3].content_store 	average_price_of_cache[3] 	-nan
scalar cost_scenario_network.client[0] 	hdistance[0] 	1.3832521294395
scalar cost_scenario_network.client[0] 	downloads[0] 	179999373
scalar cost_scenario_network.client[0] 	avg_time[0] 	0
scalar cost_scenario_network.client[0] 	interests_sent[0] 	179999373
