version 2
run General-3-20141007-11:38:16-22056
attr D costaware0.005
attr F spr
attr R lru
attr a 1
attr configname General
attr csize 1e3
attr ctlg 1e5
attr datetime 20141007-11:38:16
attr experiment General
attr inifile omnetpp.ini
attr iterationvars "$net=abilene_cost, $rep=3, $priceratiovalue=10, $weights=0.333_0.333_0.334, $lambda=100, $a=1, $ctlg=1e5, $F=spr, $ttl=10, $D=costaware0.005, $xi=1, $R=lru, $csize=1e3, $pricebits=0, $window=60, $variance=0.05, $mytime=1800"
attr iterationvars2 "$net=abilene_cost, $rep=3, $priceratiovalue=10, $weights=0.333_0.333_0.334, $lambda=100, $a=1, $ctlg=1e5, $F=spr, $ttl=10, $D=costaware0.005, $xi=1, $R=lru, $csize=1e3, $pricebits=0, $window=60, $variance=0.05, $mytime=1800, $repetition=0"
attr lambda 100
attr measurement "$net=abilene_cost, $rep=3, $priceratiovalue=10, $weights=0.333_0.333_0.334, $lambda=100, $a=1, $ctlg=1e5, $F=spr, $ttl=10, $D=costaware0.005, $xi=1, $R=lru, $csize=1e3, $pricebits=0, $window=60, $variance=0.05, $mytime=1800"
attr mytime 1800
attr net abilene_cost
attr network networks.${net=abilene_cost,geant_cost}_network
attr pricebits 0
attr priceratiovalue 10
attr processid 22056
attr rep 3
attr repetition 0
attr replication #0
attr resultdir results
attr runnumber 3
attr seedset 3
attr ttl 10
attr variance 0.05
attr weights 0.333_0.333_0.334
attr window 60
attr xi 1

scalar . 	a 	1
scalar . 	csize 	1e3
scalar . 	ctlg 	1e5
scalar . 	lambda 	100
scalar . 	mytime 	1800
scalar . 	pricebits 	0
scalar . 	priceratiovalue 	10
scalar . 	rep 	3
scalar . 	ttl 	10
scalar . 	variance 	0.05
scalar . 	window 	60
scalar . 	xi 	1
scalar abilene_cost_network.content_distribution 	repo-0 	9
scalar abilene_cost_network.content_distribution 	repo-1 	4
scalar abilene_cost_network.content_distribution 	repo-2 	0
scalar abilene_cost_network.content_distribution 	client-0 	9
scalar abilene_cost_network.content_distribution 	client-1 	0
scalar abilene_cost_network.content_distribution 	client-2 	1
scalar abilene_cost_network.content_distribution 	repo-0_card 	33498
scalar abilene_cost_network.content_distribution 	repo-0_price 	0
scalar abilene_cost_network.content_distribution 	repo-1_card 	33168
scalar abilene_cost_network.content_distribution 	repo-1_price 	10
scalar abilene_cost_network.content_distribution 	repo-2_card 	33334
scalar abilene_cost_network.content_distribution 	repo-2_price 	1
scalar abilene_cost_network.statistics 	repo_popularity[0] 	0.34820484875244
scalar abilene_cost_network.statistics 	repo_popularity[1] 	0.25519349814637
scalar abilene_cost_network.statistics 	repo_popularity[2] 	0.3966016531012
scalar abilene_cost_network.statistics 	stabilization_time 	36060
scalar abilene_cost_network.statistics 	p_hit 	0.137279088659
scalar abilene_cost_network.statistics 	interests 	124108.81818182
scalar abilene_cost_network.statistics 	data 	75109.818181818
scalar abilene_cost_network.statistics 	hdistance 	2.1951890474028
scalar abilene_cost_network.statistics 	avg_time 	0.00992418923
scalar abilene_cost_network.statistics 	downloads 	534897
scalar abilene_cost_network.statistics 	total_cost 	830051
scalar abilene_cost_network.statistics 	total_replicas 	100000
scalar abilene_cost_network.statistics 	inner_hit 	0.35099841651757
scalar abilene_cost_network.node[0].core_layer 	interests[0] 	292316
scalar abilene_cost_network.node[0].core_layer 	repo_load[0] 	86991
scalar abilene_cost_network.node[0].core_layer 	data[0] 	106031
scalar abilene_cost_network.node[0].core_layer 	repo_int[0] 	347149
scalar abilene_cost_network.node[0].content_store 	p_hit[0] 	0.33813065312881
scalar abilene_cost_network.node[0].content_store 	hits[0] 	98841
scalar abilene_cost_network.node[0].content_store 	misses[0] 	193475
scalar abilene_cost_network.node[0].content_store 	decision_yes[0] 	428
scalar abilene_cost_network.node[0].content_store 	decision_no[0] 	192594
scalar abilene_cost_network.node[0].content_store 	decision_ratio[0] 	0.0022173638238128
scalar abilene_cost_network.node[0].content_store 	correction_factor[0] 	0.0013612850530901
scalar abilene_cost_network.node[0].content_store 	kappa[0] 	1
scalar abilene_cost_network.node[1].core_layer 	interests[1] 	223991
scalar abilene_cost_network.node[1].core_layer 	data[1] 	208439
scalar abilene_cost_network.node[1].content_store 	p_hit[1] 	0.059591680022858
scalar abilene_cost_network.node[1].content_store 	hits[1] 	13348
scalar abilene_cost_network.node[1].content_store 	misses[1] 	210643
scalar abilene_cost_network.node[1].content_store 	decision_yes[1] 	719
scalar abilene_cost_network.node[1].content_store 	decision_no[1] 	207720
scalar abilene_cost_network.node[1].content_store 	decision_ratio[1] 	0.0034494504387375
scalar abilene_cost_network.node[1].content_store 	correction_factor[1] 	0.0013612850530901
scalar abilene_cost_network.node[1].content_store 	kappa[1] 	1
scalar abilene_cost_network.node[2].core_layer 	interests[2] 	120867
scalar abilene_cost_network.node[2].core_layer 	data[2] 	103657
scalar abilene_cost_network.node[2].content_store 	p_hit[2] 	0.14210661305402
scalar abilene_cost_network.node[2].content_store 	hits[2] 	17176
scalar abilene_cost_network.node[2].content_store 	misses[2] 	103691
scalar abilene_cost_network.node[2].content_store 	decision_yes[2] 	1006
scalar abilene_cost_network.node[2].content_store 	decision_no[2] 	102651
scalar abilene_cost_network.node[2].content_store 	decision_ratio[2] 	0.0097050850400841
scalar abilene_cost_network.node[2].content_store 	correction_factor[2] 	0.0013612850530901
scalar abilene_cost_network.node[2].content_store 	kappa[2] 	1
scalar abilene_cost_network.node[3].core_layer 	interests[3] 	103657
scalar abilene_cost_network.node[3].core_layer 	data[3] 	92119
scalar abilene_cost_network.node[3].content_store 	p_hit[3] 	0.11131906190609
scalar abilene_cost_network.node[3].content_store 	hits[3] 	11539
scalar abilene_cost_network.node[3].content_store 	misses[3] 	92118
scalar abilene_cost_network.node[3].content_store 	decision_yes[3] 	1008
scalar abilene_cost_network.node[3].content_store 	decision_no[3] 	91111
scalar abilene_cost_network.node[3].content_store 	decision_ratio[3] 	0.010942368023969
scalar abilene_cost_network.node[3].content_store 	correction_factor[3] 	0.0013612850530901
scalar abilene_cost_network.node[3].content_store 	kappa[3] 	1
scalar abilene_cost_network.node[4].core_layer 	interests[4] 	92119
scalar abilene_cost_network.node[4].core_layer 	repo_load[4] 	74306
scalar abilene_cost_network.node[4].core_layer 	data[4] 	0
scalar abilene_cost_network.node[4].content_store 	p_hit[4] 	0.19336944604262
scalar abilene_cost_network.node[4].content_store 	hits[4] 	17813
scalar abilene_cost_network.node[4].content_store 	misses[4] 	74306
scalar abilene_cost_network.node[4].content_store 	decision_yes[4] 	1060
scalar abilene_cost_network.node[4].content_store 	decision_no[4] 	73246
scalar abilene_cost_network.node[4].content_store 	decision_ratio[4] 	0.014265335235378
scalar abilene_cost_network.node[4].content_store 	correction_factor[4] 	0.0013612850530901
scalar abilene_cost_network.node[4].content_store 	kappa[4] 	1
scalar abilene_cost_network.node[5].core_layer 	interests[5] 	0
scalar abilene_cost_network.node[5].core_layer 	data[5] 	0
scalar abilene_cost_network.node[5].content_store 	p_hit[5] 	-nan
scalar abilene_cost_network.node[5].content_store 	hits[5] 	0
scalar abilene_cost_network.node[5].content_store 	misses[5] 	0
scalar abilene_cost_network.node[5].content_store 	decision_yes[5] 	0
scalar abilene_cost_network.node[5].content_store 	decision_no[5] 	0
scalar abilene_cost_network.node[5].content_store 	decision_ratio[5] 	0
scalar abilene_cost_network.node[5].content_store 	correction_factor[5] 	0.0013612850530901
scalar abilene_cost_network.node[5].content_store 	kappa[5] 	1
scalar abilene_cost_network.node[6].core_layer 	interests[6] 	0
scalar abilene_cost_network.node[6].core_layer 	data[6] 	0
scalar abilene_cost_network.node[6].content_store 	p_hit[6] 	-nan
scalar abilene_cost_network.node[6].content_store 	hits[6] 	0
scalar abilene_cost_network.node[6].content_store 	misses[6] 	0
scalar abilene_cost_network.node[6].content_store 	decision_yes[6] 	0
scalar abilene_cost_network.node[6].content_store 	decision_no[6] 	0
scalar abilene_cost_network.node[6].content_store 	decision_ratio[6] 	0
scalar abilene_cost_network.node[6].content_store 	correction_factor[6] 	0.0013612850530901
scalar abilene_cost_network.node[6].content_store 	kappa[6] 	1
scalar abilene_cost_network.node[7].core_layer 	interests[7] 	0
scalar abilene_cost_network.node[7].core_layer 	data[7] 	0
scalar abilene_cost_network.node[7].content_store 	p_hit[7] 	-nan
scalar abilene_cost_network.node[7].content_store 	hits[7] 	0
scalar abilene_cost_network.node[7].content_store 	misses[7] 	0
scalar abilene_cost_network.node[7].content_store 	decision_yes[7] 	0
scalar abilene_cost_network.node[7].content_store 	decision_no[7] 	0
scalar abilene_cost_network.node[7].content_store 	decision_ratio[7] 	0
scalar abilene_cost_network.node[7].content_store 	correction_factor[7] 	0.0013612850530901
scalar abilene_cost_network.node[7].content_store 	kappa[7] 	1
scalar abilene_cost_network.node[8].core_layer 	interests[8] 	42080
scalar abilene_cost_network.node[8].core_layer 	data[8] 	38656
scalar abilene_cost_network.node[8].content_store 	p_hit[8] 	0.081392585551331
scalar abilene_cost_network.node[8].content_store 	hits[8] 	3425
scalar abilene_cost_network.node[8].content_store 	misses[8] 	38655
scalar abilene_cost_network.node[8].content_store 	decision_yes[8] 	353
scalar abilene_cost_network.node[8].content_store 	decision_no[8] 	38303
scalar abilene_cost_network.node[8].content_store 	decision_ratio[8] 	0.0091318294701987
scalar abilene_cost_network.node[8].content_store 	correction_factor[8] 	0.0013612850530901
scalar abilene_cost_network.node[8].content_store 	kappa[8] 	1
scalar abilene_cost_network.node[9].core_layer 	interests[9] 	303747
scalar abilene_cost_network.node[9].core_layer 	repo_load[9] 	185852
scalar abilene_cost_network.node[9].core_layer 	data[9] 	104614
scalar abilene_cost_network.node[9].content_store 	p_hit[9] 	0.038815198174797
scalar abilene_cost_network.node[9].content_store 	hits[9] 	11790
scalar abilene_cost_network.node[9].content_store 	misses[9] 	291957
scalar abilene_cost_network.node[9].content_store 	decision_yes[9] 	364
scalar abilene_cost_network.node[9].content_store 	decision_no[9] 	290102
scalar abilene_cost_network.node[9].content_store 	decision_ratio[9] 	0.0012531587173714
scalar abilene_cost_network.node[9].content_store 	correction_factor[9] 	0.0013612850530901
scalar abilene_cost_network.node[9].content_store 	kappa[9] 	1
scalar abilene_cost_network.node[10].core_layer 	interests[10] 	186420
scalar abilene_cost_network.node[10].core_layer 	data[10] 	172692
scalar abilene_cost_network.node[10].content_store 	p_hit[10] 	0.07231520223152
scalar abilene_cost_network.node[10].content_store 	hits[10] 	13481
scalar abilene_cost_network.node[10].content_store 	misses[10] 	172939
scalar abilene_cost_network.node[10].content_store 	decision_yes[10] 	47
scalar abilene_cost_network.node[10].content_store 	decision_no[10] 	172645
scalar abilene_cost_network.node[10].content_store 	decision_ratio[10] 	0.00027216084126653
scalar abilene_cost_network.node[10].content_store 	correction_factor[10] 	0.0013612850530901
scalar abilene_cost_network.node[10].content_store 	kappa[10] 	1
scalar abilene_cost_network.client[0] 	hdistance[0] 	2.1879766560914
scalar abilene_cost_network.client[0] 	downloads[0] 	178719
scalar abilene_cost_network.client[0] 	avg_time[0] 	0.009106773339
scalar abilene_cost_network.client[1] 	hdistance[1] 	2.3311406719906
scalar abilene_cost_network.client[1] 	downloads[1] 	177562
scalar abilene_cost_network.client[1] 	avg_time[1] 	0.01126551825
scalar abilene_cost_network.client[9] 	hdistance[9] 	2.0664498141264
scalar abilene_cost_network.client[9] 	downloads[9] 	178616
scalar abilene_cost_network.client[9] 	avg_time[9] 	0.009400276102
