version 2
run General-2-20141007-10:50:30-14776
attr D costaware0.05
attr F spr
attr R lru
attr a 1
attr configname General
attr csize 1e3
attr ctlg 1e5
attr datetime 20141007-10:50:30
attr experiment General
attr inifile omnetpp.ini
attr iterationvars "$net=abilene_cost, $rep=5, $priceratiovalue=10, $weights=0.333_0.333_0.334, $lambda=100, $a=1, $ctlg=1e5, $F=spr, $ttl=10, $D=costaware0.05, $xi=1, $R=lru, $csize=1e3, $pricebits=0, $window=60, $variance=0.05, $mytime=1800"
attr iterationvars2 "$net=abilene_cost, $rep=5, $priceratiovalue=10, $weights=0.333_0.333_0.334, $lambda=100, $a=1, $ctlg=1e5, $F=spr, $ttl=10, $D=costaware0.05, $xi=1, $R=lru, $csize=1e3, $pricebits=0, $window=60, $variance=0.05, $mytime=1800, $repetition=0"
attr lambda 100
attr measurement "$net=abilene_cost, $rep=5, $priceratiovalue=10, $weights=0.333_0.333_0.334, $lambda=100, $a=1, $ctlg=1e5, $F=spr, $ttl=10, $D=costaware0.05, $xi=1, $R=lru, $csize=1e3, $pricebits=0, $window=60, $variance=0.05, $mytime=1800"
attr mytime 1800
attr net abilene_cost
attr network networks.${net=abilene_cost,geant_cost}_network
attr pricebits 0
attr priceratiovalue 10
attr processid 14776
attr rep 5
attr repetition 0
attr replication #0
attr resultdir results
attr runnumber 2
attr seedset 5
attr ttl 10
attr variance 0.05
attr weights 0.333_0.333_0.334
attr window 60
attr xi 1

scalar . 	a 	1
scalar . 	csize 	1e3
scalar . 	ctlg 	1e5
scalar . 	lambda 	100
scalar . 	mytime 	1800
scalar . 	pricebits 	0
scalar . 	priceratiovalue 	10
scalar . 	rep 	5
scalar . 	ttl 	10
scalar . 	variance 	0.05
scalar . 	window 	60
scalar . 	xi 	1
scalar abilene_cost_network.content_distribution 	repo-0 	9
scalar abilene_cost_network.content_distribution 	repo-1 	5
scalar abilene_cost_network.content_distribution 	repo-2 	1
scalar abilene_cost_network.content_distribution 	client-0 	4
scalar abilene_cost_network.content_distribution 	client-1 	9
scalar abilene_cost_network.content_distribution 	client-2 	0
scalar abilene_cost_network.content_distribution 	repo-0_card 	33098
scalar abilene_cost_network.content_distribution 	repo-0_price 	1
scalar abilene_cost_network.content_distribution 	repo-1_card 	33495
scalar abilene_cost_network.content_distribution 	repo-1_price 	10
scalar abilene_cost_network.content_distribution 	repo-2_card 	33407
scalar abilene_cost_network.content_distribution 	repo-2_price 	0
scalar abilene_cost_network.statistics 	repo_popularity[0] 	0.31037770261398
scalar abilene_cost_network.statistics 	repo_popularity[1] 	0.29913869324176
scalar abilene_cost_network.statistics 	repo_popularity[2] 	0.39048360414427
scalar abilene_cost_network.statistics 	stabilization_time 	364.4
scalar abilene_cost_network.statistics 	p_hit 	0.083350135476742
scalar abilene_cost_network.statistics 	interests 	150143.18181818
scalar abilene_cost_network.statistics 	data 	101071
scalar abilene_cost_network.statistics 	hdistance 	2.8269466633212
scalar abilene_cost_network.statistics 	avg_time 	0.013672226515
scalar abilene_cost_network.statistics 	downloads 	533151
scalar abilene_cost_network.statistics 	total_cost 	997151
scalar abilene_cost_network.statistics 	total_replicas 	100000
scalar abilene_cost_network.statistics 	inner_hit 	0.25825891726734
scalar abilene_cost_network.node[0].core_layer 	interests[0] 	180698
scalar abilene_cost_network.node[0].core_layer 	data[0] 	164465
scalar abilene_cost_network.node[0].core_layer 	repo_int[0] 	395460
scalar abilene_cost_network.node[0].content_store 	p_hit[0] 	0.080548760916003
scalar abilene_cost_network.node[0].content_store 	hits[0] 	14555
scalar abilene_cost_network.node[0].content_store 	misses[0] 	166143
scalar abilene_cost_network.node[0].content_store 	decision_yes[0] 	4215
scalar abilene_cost_network.node[0].content_store 	decision_no[0] 	160250
scalar abilene_cost_network.node[0].content_store 	decision_ratio[0] 	0.025628553187608
scalar abilene_cost_network.node[0].content_store 	correction_factor[0] 	0.013612850530901
scalar abilene_cost_network.node[0].content_store 	kappa[0] 	1
scalar abilene_cost_network.node[1].core_layer 	interests[1] 	249713
scalar abilene_cost_network.node[1].core_layer 	repo_load[1] 	206266
scalar abilene_cost_network.node[1].core_layer 	data[1] 	40301
scalar abilene_cost_network.node[1].content_store 	p_hit[1] 	0.012590453841009
scalar abilene_cost_network.node[1].content_store 	hits[1] 	3144
scalar abilene_cost_network.node[1].content_store 	misses[1] 	246569
scalar abilene_cost_network.node[1].content_store 	decision_yes[1] 	3868
scalar abilene_cost_network.node[1].content_store 	decision_no[1] 	242699
scalar abilene_cost_network.node[1].content_store 	decision_ratio[1] 	0.015687419646587
scalar abilene_cost_network.node[1].content_store 	correction_factor[1] 	0.013612850530901
scalar abilene_cost_network.node[1].content_store 	kappa[1] 	1
scalar abilene_cost_network.node[2].core_layer 	interests[2] 	158256
scalar abilene_cost_network.node[2].core_layer 	data[2] 	153819
scalar abilene_cost_network.node[2].content_store 	p_hit[2] 	0.028024213931857
scalar abilene_cost_network.node[2].content_store 	hits[2] 	4435
scalar abilene_cost_network.node[2].content_store 	misses[2] 	153821
scalar abilene_cost_network.node[2].content_store 	decision_yes[2] 	4366
scalar abilene_cost_network.node[2].content_store 	decision_no[2] 	149453
scalar abilene_cost_network.node[2].content_store 	decision_ratio[2] 	0.028384009777726
scalar abilene_cost_network.node[2].content_store 	correction_factor[2] 	0.013612850530901
scalar abilene_cost_network.node[2].content_store 	kappa[2] 	1
scalar abilene_cost_network.node[3].core_layer 	interests[3] 	162777
scalar abilene_cost_network.node[3].core_layer 	data[3] 	154147
scalar abilene_cost_network.node[3].content_store 	p_hit[3] 	0.053011174797422
scalar abilene_cost_network.node[3].content_store 	hits[3] 	8629
scalar abilene_cost_network.node[3].content_store 	misses[3] 	154148
scalar abilene_cost_network.node[3].content_store 	decision_yes[3] 	4383
scalar abilene_cost_network.node[3].content_store 	decision_no[3] 	149764
scalar abilene_cost_network.node[3].content_store 	decision_ratio[3] 	0.028433897513413
scalar abilene_cost_network.node[3].content_store 	correction_factor[3] 	0.013612850530901
scalar abilene_cost_network.node[3].content_store 	kappa[3] 	1
scalar abilene_cost_network.node[4].core_layer 	interests[4] 	216071
scalar abilene_cost_network.node[4].core_layer 	data[4] 	202203
scalar abilene_cost_network.node[4].content_store 	p_hit[4] 	0.053190849304164
scalar abilene_cost_network.node[4].content_store 	hits[4] 	11493
scalar abilene_cost_network.node[4].content_store 	misses[4] 	204578
scalar abilene_cost_network.node[4].content_store 	decision_yes[4] 	8787
scalar abilene_cost_network.node[4].content_store 	decision_no[4] 	193416
scalar abilene_cost_network.node[4].content_store 	decision_ratio[4] 	0.04345632854112
scalar abilene_cost_network.node[4].content_store 	correction_factor[4] 	0.013612850530901
scalar abilene_cost_network.node[4].content_store 	kappa[4] 	1
scalar abilene_cost_network.node[5].core_layer 	interests[5] 	117046
scalar abilene_cost_network.node[5].core_layer 	repo_load[5] 	89773
scalar abilene_cost_network.node[5].core_layer 	data[5] 	0
scalar abilene_cost_network.node[5].content_store 	p_hit[5] 	0.23301095295867
scalar abilene_cost_network.node[5].content_store 	hits[5] 	27273
scalar abilene_cost_network.node[5].content_store 	misses[5] 	89773
scalar abilene_cost_network.node[5].content_store 	decision_yes[5] 	12377
scalar abilene_cost_network.node[5].content_store 	decision_no[5] 	77396
scalar abilene_cost_network.node[5].content_store 	decision_ratio[5] 	0.13786996090138
scalar abilene_cost_network.node[5].content_store 	correction_factor[5] 	0.013612850530901
scalar abilene_cost_network.node[5].content_store 	kappa[5] 	1
scalar abilene_cost_network.node[6].core_layer 	interests[6] 	42225
scalar abilene_cost_network.node[6].core_layer 	data[6] 	38913
scalar abilene_cost_network.node[6].content_store 	p_hit[6] 	0.078436944937833
scalar abilene_cost_network.node[6].content_store 	hits[6] 	3312
scalar abilene_cost_network.node[6].content_store 	misses[6] 	38913
scalar abilene_cost_network.node[6].content_store 	decision_yes[6] 	3878
scalar abilene_cost_network.node[6].content_store 	decision_no[6] 	35035
scalar abilene_cost_network.node[6].content_store 	decision_ratio[6] 	0.099658211908617
scalar abilene_cost_network.node[6].content_store 	correction_factor[6] 	0.013612850530901
scalar abilene_cost_network.node[6].content_store 	kappa[6] 	1
scalar abilene_cost_network.node[7].core_layer 	interests[7] 	45557
scalar abilene_cost_network.node[7].core_layer 	data[7] 	42225
scalar abilene_cost_network.node[7].content_store 	p_hit[7] 	0.073139144368593
scalar abilene_cost_network.node[7].content_store 	hits[7] 	3332
scalar abilene_cost_network.node[7].content_store 	misses[7] 	42225
scalar abilene_cost_network.node[7].content_store 	decision_yes[7] 	3969
scalar abilene_cost_network.node[7].content_store 	decision_no[7] 	38256
scalar abilene_cost_network.node[7].content_store 	decision_ratio[7] 	0.093996447602131
scalar abilene_cost_network.node[7].content_store 	correction_factor[7] 	0.013612850530901
scalar abilene_cost_network.node[7].content_store 	kappa[7] 	1
scalar abilene_cost_network.node[8].core_layer 	interests[8] 	94275
scalar abilene_cost_network.node[8].core_layer 	data[8] 	89578
scalar abilene_cost_network.node[8].content_store 	p_hit[8] 	0.049811721028905
scalar abilene_cost_network.node[8].content_store 	hits[8] 	4696
scalar abilene_cost_network.node[8].content_store 	misses[8] 	89579
scalar abilene_cost_network.node[8].content_store 	decision_yes[8] 	4231
scalar abilene_cost_network.node[8].content_store 	decision_no[8] 	85347
scalar abilene_cost_network.node[8].content_store 	decision_ratio[8] 	0.047232579427985
scalar abilene_cost_network.node[8].content_store 	correction_factor[8] 	0.013612850530901
scalar abilene_cost_network.node[8].content_store 	kappa[8] 	1
scalar abilene_cost_network.node[9].core_layer 	interests[9] 	264666
scalar abilene_cost_network.node[9].core_layer 	repo_load[9] 	99421
scalar abilene_cost_network.node[9].core_layer 	data[9] 	116357
scalar abilene_cost_network.node[9].content_store 	p_hit[9] 	0.17483167463898
scalar abilene_cost_network.node[9].content_store 	hits[9] 	46272
scalar abilene_cost_network.node[9].content_store 	misses[9] 	218394
scalar abilene_cost_network.node[9].content_store 	decision_yes[9] 	5336
scalar abilene_cost_network.node[9].content_store 	decision_no[9] 	210442
scalar abilene_cost_network.node[9].content_store 	decision_ratio[9] 	0.02472911974344
scalar abilene_cost_network.node[9].content_store 	correction_factor[9] 	0.013612850530901
scalar abilene_cost_network.node[9].content_store 	kappa[9] 	1
scalar abilene_cost_network.node[10].core_layer 	interests[10] 	120291
scalar abilene_cost_network.node[10].core_layer 	data[10] 	109773
scalar abilene_cost_network.node[10].content_store 	p_hit[10] 	0.087437962939871
scalar abilene_cost_network.node[10].content_store 	hits[10] 	10518
scalar abilene_cost_network.node[10].content_store 	misses[10] 	109773
scalar abilene_cost_network.node[10].content_store 	decision_yes[10] 	392
scalar abilene_cost_network.node[10].content_store 	decision_no[10] 	109381
scalar abilene_cost_network.node[10].content_store 	decision_ratio[10] 	0.00357100562069
scalar abilene_cost_network.node[10].content_store 	correction_factor[10] 	0.013612850530901
scalar abilene_cost_network.node[10].content_store 	kappa[10] 	1
scalar abilene_cost_network.client[0] 	hdistance[0] 	2.6902524857557
scalar abilene_cost_network.client[0] 	downloads[0] 	179020
scalar abilene_cost_network.client[0] 	avg_time[0] 	0.013938914594
scalar abilene_cost_network.client[4] 	hdistance[4] 	3.2763123060198
scalar abilene_cost_network.client[4] 	downloads[4] 	177531
scalar abilene_cost_network.client[4] 	avg_time[4] 	0.014116891199
scalar abilene_cost_network.client[9] 	hdistance[9] 	2.514275198188
scalar abilene_cost_network.client[9] 	downloads[9] 	176600
scalar abilene_cost_network.client[9] 	avg_time[9] 	0.012960873752
