version 2
run General-2-20141007-10:52:38-437
attr D costaware0.05
attr F spr
attr R lru
attr a 1
attr configname General
attr csize 1e3
attr ctlg 1e5
attr datetime 20141007-10:52:38
attr experiment General
attr inifile omnetpp.ini
attr iterationvars "$net=abilene_cost, $rep=4, $priceratiovalue=10, $weights=0.333_0.333_0.334, $lambda=100, $a=1, $ctlg=1e5, $F=spr, $ttl=10, $D=costaware0.05, $xi=1, $R=lru, $csize=1e3, $pricebits=0, $window=60, $variance=0.05, $mytime=1800"
attr iterationvars2 "$net=abilene_cost, $rep=4, $priceratiovalue=10, $weights=0.333_0.333_0.334, $lambda=100, $a=1, $ctlg=1e5, $F=spr, $ttl=10, $D=costaware0.05, $xi=1, $R=lru, $csize=1e3, $pricebits=0, $window=60, $variance=0.05, $mytime=1800, $repetition=0"
attr lambda 100
attr measurement "$net=abilene_cost, $rep=4, $priceratiovalue=10, $weights=0.333_0.333_0.334, $lambda=100, $a=1, $ctlg=1e5, $F=spr, $ttl=10, $D=costaware0.05, $xi=1, $R=lru, $csize=1e3, $pricebits=0, $window=60, $variance=0.05, $mytime=1800"
attr mytime 1800
attr net abilene_cost
attr network networks.${net=abilene_cost,geant_cost}_network
attr pricebits 0
attr priceratiovalue 10
attr processid 437
attr rep 4
attr repetition 0
attr replication #0
attr resultdir results
attr runnumber 2
attr seedset 4
attr ttl 10
attr variance 0.05
attr weights 0.333_0.333_0.334
attr window 60
attr xi 1

scalar . 	a 	1
scalar . 	csize 	1e3
scalar . 	ctlg 	1e5
scalar . 	lambda 	100
scalar . 	mytime 	1800
scalar . 	pricebits 	0
scalar . 	priceratiovalue 	10
scalar . 	rep 	4
scalar . 	ttl 	10
scalar . 	variance 	0.05
scalar . 	window 	60
scalar . 	xi 	1
scalar abilene_cost_network.content_distribution 	repo-0 	2
scalar abilene_cost_network.content_distribution 	repo-1 	0
scalar abilene_cost_network.content_distribution 	repo-2 	10
scalar abilene_cost_network.content_distribution 	client-0 	6
scalar abilene_cost_network.content_distribution 	client-1 	2
scalar abilene_cost_network.content_distribution 	client-2 	4
scalar abilene_cost_network.content_distribution 	repo-0_card 	33274
scalar abilene_cost_network.content_distribution 	repo-0_price 	0
scalar abilene_cost_network.content_distribution 	repo-1_card 	33153
scalar abilene_cost_network.content_distribution 	repo-1_price 	1
scalar abilene_cost_network.content_distribution 	repo-2_card 	33573
scalar abilene_cost_network.content_distribution 	repo-2_price 	10
scalar abilene_cost_network.statistics 	repo_popularity[0] 	0.33945880017902
scalar abilene_cost_network.statistics 	repo_popularity[1] 	0.30988277584688
scalar abilene_cost_network.statistics 	repo_popularity[2] 	0.35065842397411
scalar abilene_cost_network.statistics 	stabilization_time 	36060
scalar abilene_cost_network.statistics 	p_hit 	0.098169771658813
scalar abilene_cost_network.statistics 	interests 	163690.45454545
scalar abilene_cost_network.statistics 	data 	114599.36363636
scalar abilene_cost_network.statistics 	hdistance 	3.0332993235162
scalar abilene_cost_network.statistics 	avg_time 	0.014093385308
scalar abilene_cost_network.statistics 	downloads 	535559
scalar abilene_cost_network.statistics 	total_cost 	985095
scalar abilene_cost_network.statistics 	total_replicas 	100000
scalar abilene_cost_network.statistics 	inner_hit 	0.33446361652031
scalar abilene_cost_network.node[0].core_layer 	interests[0] 	135378
scalar abilene_cost_network.node[0].core_layer 	repo_load[0] 	86525
scalar abilene_cost_network.node[0].core_layer 	data[0] 	0
scalar abilene_cost_network.node[0].core_layer 	repo_int[0] 	356434
scalar abilene_cost_network.node[0].content_store 	p_hit[0] 	0.36086365583773
scalar abilene_cost_network.node[0].content_store 	hits[0] 	48853
scalar abilene_cost_network.node[0].content_store 	misses[0] 	86525
scalar abilene_cost_network.node[0].content_store 	decision_yes[0] 	1163
scalar abilene_cost_network.node[0].content_store 	decision_no[0] 	85362
scalar abilene_cost_network.node[0].content_store 	decision_ratio[0] 	0.01344120196475
scalar abilene_cost_network.node[0].content_store 	correction_factor[0] 	0.013612850530901
scalar abilene_cost_network.node[0].content_store 	kappa[0] 	1
scalar abilene_cost_network.node[1].core_layer 	interests[1] 	224438
scalar abilene_cost_network.node[1].core_layer 	data[1] 	203930
scalar abilene_cost_network.node[1].content_store 	p_hit[1] 	0.091379356436967
scalar abilene_cost_network.node[1].content_store 	hits[1] 	20509
scalar abilene_cost_network.node[1].content_store 	misses[1] 	203929
scalar abilene_cost_network.node[1].content_store 	decision_yes[1] 	9508
scalar abilene_cost_network.node[1].content_store 	decision_no[1] 	194422
scalar abilene_cost_network.node[1].content_store 	decision_ratio[1] 	0.046623841514245
scalar abilene_cost_network.node[1].content_store 	correction_factor[1] 	0.013612850530901
scalar abilene_cost_network.node[1].content_store 	kappa[1] 	1
scalar abilene_cost_network.node[2].core_layer 	interests[2] 	446087
scalar abilene_cost_network.node[2].core_layer 	repo_load[2] 	180052
scalar abilene_cost_network.node[2].core_layer 	data[2] 	224439
scalar abilene_cost_network.node[2].content_store 	p_hit[2] 	0.09061909448157
scalar abilene_cost_network.node[2].content_store 	hits[2] 	40424
scalar abilene_cost_network.node[2].content_store 	misses[2] 	405663
scalar abilene_cost_network.node[2].content_store 	decision_yes[2] 	9426
scalar abilene_cost_network.node[2].content_store 	decision_no[2] 	395065
scalar abilene_cost_network.node[2].content_store 	decision_ratio[2] 	0.023303361508662
scalar abilene_cost_network.node[2].content_store 	correction_factor[2] 	0.013612850530901
scalar abilene_cost_network.node[2].content_store 	kappa[2] 	1
scalar abilene_cost_network.node[3].core_layer 	interests[3] 	286822
scalar abilene_cost_network.node[3].core_layer 	data[3] 	266185
scalar abilene_cost_network.node[3].content_store 	p_hit[3] 	0.066668526124216
scalar abilene_cost_network.node[3].content_store 	hits[3] 	19122
scalar abilene_cost_network.node[3].content_store 	misses[3] 	267700
scalar abilene_cost_network.node[3].content_store 	decision_yes[3] 	4848
scalar abilene_cost_network.node[3].content_store 	decision_no[3] 	261337
scalar abilene_cost_network.node[3].content_store 	decision_ratio[3] 	0.018212897045288
scalar abilene_cost_network.node[3].content_store 	correction_factor[3] 	0.013612850530901
scalar abilene_cost_network.node[3].content_store 	kappa[3] 	1
scalar abilene_cost_network.node[4].core_layer 	interests[4] 	180072
scalar abilene_cost_network.node[4].core_layer 	data[4] 	172875
scalar abilene_cost_network.node[4].content_store 	p_hit[4] 	0.031648451730419
scalar abilene_cost_network.node[4].content_store 	hits[4] 	5699
scalar abilene_cost_network.node[4].content_store 	misses[4] 	174373
scalar abilene_cost_network.node[4].content_store 	decision_yes[4] 	4449
scalar abilene_cost_network.node[4].content_store 	decision_no[4] 	168426
scalar abilene_cost_network.node[4].content_store 	decision_ratio[4] 	0.02573535791757
scalar abilene_cost_network.node[4].content_store 	correction_factor[4] 	0.013612850530901
scalar abilene_cost_network.node[4].content_store 	kappa[4] 	1
scalar abilene_cost_network.node[5].core_layer 	interests[5] 	0
scalar abilene_cost_network.node[5].core_layer 	data[5] 	0
scalar abilene_cost_network.node[5].content_store 	p_hit[5] 	-nan
scalar abilene_cost_network.node[5].content_store 	hits[5] 	0
scalar abilene_cost_network.node[5].content_store 	misses[5] 	0
scalar abilene_cost_network.node[5].content_store 	decision_yes[5] 	0
scalar abilene_cost_network.node[5].content_store 	decision_no[5] 	0
scalar abilene_cost_network.node[5].content_store 	decision_ratio[5] 	0
scalar abilene_cost_network.node[5].content_store 	correction_factor[5] 	0.013612850530901
scalar abilene_cost_network.node[5].content_store 	kappa[5] 	1
scalar abilene_cost_network.node[6].core_layer 	interests[6] 	180033
scalar abilene_cost_network.node[6].core_layer 	data[6] 	170040
scalar abilene_cost_network.node[6].content_store 	p_hit[6] 	0.040942493876123
scalar abilene_cost_network.node[6].content_store 	hits[6] 	7371
scalar abilene_cost_network.node[6].content_store 	misses[6] 	172662
scalar abilene_cost_network.node[6].content_store 	decision_yes[6] 	4307
scalar abilene_cost_network.node[6].content_store 	decision_no[6] 	165733
scalar abilene_cost_network.node[6].content_store 	decision_ratio[6] 	0.025329334274288
scalar abilene_cost_network.node[6].content_store 	correction_factor[6] 	0.013612850530901
scalar abilene_cost_network.node[6].content_store 	kappa[6] 	1
scalar abilene_cost_network.node[7].core_layer 	interests[7] 	170038
scalar abilene_cost_network.node[7].core_layer 	data[7] 	157456
scalar abilene_cost_network.node[7].content_store 	p_hit[7] 	0.074006986673567
scalar abilene_cost_network.node[7].content_store 	hits[7] 	12584
scalar abilene_cost_network.node[7].content_store 	misses[7] 	157454
scalar abilene_cost_network.node[7].content_store 	decision_yes[7] 	4342
scalar abilene_cost_network.node[7].content_store 	decision_no[7] 	153114
scalar abilene_cost_network.node[7].content_store 	decision_ratio[7] 	0.027575957727873
scalar abilene_cost_network.node[7].content_store 	correction_factor[7] 	0.013612850530901
scalar abilene_cost_network.node[7].content_store 	kappa[7] 	1
scalar abilene_cost_network.node[8].core_layer 	interests[8] 	43507
scalar abilene_cost_network.node[8].core_layer 	data[8] 	34383
scalar abilene_cost_network.node[8].content_store 	p_hit[8] 	0.20971337945618
scalar abilene_cost_network.node[8].content_store 	hits[8] 	9124
scalar abilene_cost_network.node[8].content_store 	misses[8] 	34383
scalar abilene_cost_network.node[8].content_store 	decision_yes[8] 	3999
scalar abilene_cost_network.node[8].content_store 	decision_no[8] 	30384
scalar abilene_cost_network.node[8].content_store 	decision_ratio[8] 	0.1163074775325
scalar abilene_cost_network.node[8].content_store 	correction_factor[8] 	0.013612850530901
scalar abilene_cost_network.node[8].content_store 	kappa[8] 	1
scalar abilene_cost_network.node[9].core_layer 	interests[9] 	34383
scalar abilene_cost_network.node[9].core_layer 	data[9] 	31285
scalar abilene_cost_network.node[9].content_store 	p_hit[9] 	0.090102667015676
scalar abilene_cost_network.node[9].content_store 	hits[9] 	3098
scalar abilene_cost_network.node[9].content_store 	misses[9] 	31285
scalar abilene_cost_network.node[9].content_store 	decision_yes[9] 	4010
scalar abilene_cost_network.node[9].content_store 	decision_no[9] 	27275
scalar abilene_cost_network.node[9].content_store 	decision_ratio[9] 	0.12817644238453
scalar abilene_cost_network.node[9].content_store 	correction_factor[9] 	0.013612850530901
scalar abilene_cost_network.node[9].content_store 	kappa[9] 	1
scalar abilene_cost_network.node[10].core_layer 	interests[10] 	99837
scalar abilene_cost_network.node[10].core_layer 	repo_load[10] 	89857
scalar abilene_cost_network.node[10].core_layer 	data[10] 	0
scalar abilene_cost_network.node[10].content_store 	p_hit[10] 	0.099962939591534
scalar abilene_cost_network.node[10].content_store 	hits[10] 	9980
scalar abilene_cost_network.node[10].content_store 	misses[10] 	89857
scalar abilene_cost_network.node[10].content_store 	decision_yes[10] 	12160
scalar abilene_cost_network.node[10].content_store 	decision_no[10] 	77697
scalar abilene_cost_network.node[10].content_store 	decision_ratio[10] 	0.13532612929432
scalar abilene_cost_network.node[10].content_store 	correction_factor[10] 	0.013612850530901
scalar abilene_cost_network.node[10].content_store 	kappa[10] 	1
scalar abilene_cost_network.client[2] 	hdistance[2] 	1.6749473754553
scalar abilene_cost_network.client[2] 	downloads[2] 	179574
scalar abilene_cost_network.client[2] 	avg_time[2] 	0.008088934541
scalar abilene_cost_network.client[4] 	hdistance[4] 	3.4334393584732
scalar abilene_cost_network.client[4] 	downloads[4] 	178574
scalar abilene_cost_network.client[4] 	avg_time[4] 	0.013354439104
scalar abilene_cost_network.client[6] 	hdistance[6] 	3.9915112366201
scalar abilene_cost_network.client[6] 	downloads[6] 	177411
scalar abilene_cost_network.client[6] 	avg_time[6] 	0.02083678228
