version 2
run General-3-20160801-10:38:29-18915
attr C 1e2
attr D fix0.001
attr F spr
attr R lru
attr a 1
attr brates 1
attr configname General
attr ctlg 1e4
attr datetime 20160801-10:38:29
attr experiment General
attr inifile omnetpp.ini
attr iterationvars "$net=base, $rep=0, $lambda=100, $a=1, $ctlg=1e4, $brates=1, $F=spr, $ttl=1000, $D=fix0.001, $R=lru, $proactiveprob=0, $C=1e2, $window=60, $variance=1000, $mytime=1800"
attr iterationvars2 "$net=base, $rep=0, $lambda=100, $a=1, $ctlg=1e4, $brates=1, $F=spr, $ttl=1000, $D=fix0.001, $R=lru, $proactiveprob=0, $C=1e2, $window=60, $variance=1000, $mytime=1800, $repetition=0"
attr lambda 100
attr measurement "$net=base, $rep=0, $lambda=100, $a=1, $ctlg=1e4, $brates=1, $F=spr, $ttl=1000, $D=fix0.001, $R=lru, $proactiveprob=0, $C=1e2, $window=60, $variance=1000, $mytime=1800"
attr mytime 1800
attr net base
attr network networks.${net=base}_network
attr proactiveprob 0
attr processid 18915
attr rep 0
attr repetition 0
attr replication #0
attr resultdir results
attr runnumber 3
attr seedset 0
attr ttl 1000
attr variance 1000
attr window 60
param **.C "${C = 1e2}"
param **.DS "\"${ D = lce, fix0.1, fix0.01, fix0.001}\""
param **.FS "\"${ F = spr }\""
param **.RS "\"${ R = lru}_cache\""
param **.RTT 2
param **.TTL1 ${ttl}
param **.TTL2 "${ttl = 1000}"
param **.alpha "${a = 1}"
param **.cache_dump_interval 10
param **.cache_if_in_repo true
param **.check_time 0.1
param **.client_type "\"client\""
param **.content_distribution.representation_bitrates "\"${ brates = 1}\""
param **.dump_type "\"breakdown\""
param **.file_size 1
param **.lambda "${ lambda = 100}"
param **.node_clients "\"\""
param **.num_clients 1
param **.num_repos 1
param **.objects "${ctlg = 1e4}"
param **.partial_n -1
param **.prefill true
param **.proactive_probability "${proactiveprob = 0}"
param **.routing_file "\"\""
param **.runid "\"${runid}\""
param **.steady "${ mytime = 1800}"
param **.ts 10
param **.variance_threshold ${variance=1000}
param **.window ${window=60}
param *.replicas 1

scalar . 	C 	1e2
scalar . 	a 	1
scalar . 	brates 	1
scalar . 	ctlg 	1e4
scalar . 	lambda 	100
scalar . 	mytime 	1800
scalar . 	proactiveprob 	0
scalar . 	rep 	0
scalar . 	ttl 	1000
scalar . 	variance 	1000
scalar . 	window 	60
scalar base_network.content_distribution 	repo-0 	0
scalar base_network.content_distribution 	client-0 	0
scalar base_network.content_distribution 	repo-0_card 	10000
scalar base_network.content_distribution 	repo-0_price 	0
scalar base_network.statistics 	stabilization_time 	70
scalar base_network.statistics 	p_hit 	0.32026751089128
scalar base_network.statistics 	interests 	179731
scalar base_network.statistics 	data 	0
scalar base_network.statistics 	hdistance 	0.67973248910871
scalar base_network.statistics 	avg_time 	0
scalar base_network.statistics 	downloads 	179731
scalar base_network.statistics 	total_cost 	0
scalar base_network.statistics 	total_replicas 	10000
scalar base_network.statistics 	"slots_per_representation 100:" 	0
scalar base_network.statistics 	inner_hit 	0.32026751089128
scalar base_network.statistics 	execution_time 	3
scalar base_network.node[0].core_layer 	interests[0] 	179731
scalar base_network.node[0].core_layer 	repo_load[0] 	122169
scalar base_network.node[0].core_layer 	data[0] 	0
scalar base_network.node[0].core_layer 	slots_sent[face$o[1]->client[0]] 	17973100
scalar base_network.node[0].content_store 	p_hit[0] 	0.32026751089128
scalar base_network.node[0].content_store 	hits[0] 	57562
scalar base_network.node[0].content_store 	misses[0] 	122169
scalar base_network.node[0].content_store 	decision_yes[0] 	120
scalar base_network.node[0].content_store 	decision_no[0] 	122049
scalar base_network.node[0].content_store 	decision_ratio[0] 	0.00098224590526238
scalar base_network.client[0] 	hdistance[0].real 	0.67973248910871
scalar base_network.client[0] 	downloads[0].real 	179731
scalar base_network.client[0] 	avg_time[0].real 	0
