version 2
run General-0-20150722-12:17:55-21657
attr C 1e4
attr D lce
attr F spr
attr R lru
attr a 1
attr brates 1
attr configname General
attr ctlg 1e6
attr datetime 20150722-12:17:55
attr experiment General
attr inifile omnetpp.ini
attr iterationvars "$net=barabasi_100nodes, $rep=1, $lambda=100, $a=1, $ctlg=1e6, $brates=1, $F=spr, $ttl=1000, $D=lce, $R=lru, $C=1e4, $window=60, $variance=0.05, $mytime=1800"
attr iterationvars2 "$net=barabasi_100nodes, $rep=1, $lambda=100, $a=1, $ctlg=1e6, $brates=1, $F=spr, $ttl=1000, $D=lce, $R=lru, $C=1e4, $window=60, $variance=0.05, $mytime=1800, $repetition=0"
attr lambda 100
attr measurement "$net=barabasi_100nodes, $rep=1, $lambda=100, $a=1, $ctlg=1e6, $brates=1, $F=spr, $ttl=1000, $D=lce, $R=lru, $C=1e4, $window=60, $variance=0.05, $mytime=1800"
attr mytime 1800
attr net barabasi_100nodes
attr network networks.${net=barabasi_100nodes}_network
attr processid 21657
attr rep 1
attr repetition 0
attr replication #0
attr resultdir results
attr runnumber 0
attr seedset 1
attr ttl 1000
attr variance 0.05
attr window 60

scalar . 	C 	1e4
scalar . 	a 	1
scalar . 	brates 	1
scalar . 	ctlg 	1e6
scalar . 	lambda 	100
scalar . 	mytime 	1800
scalar . 	rep 	1
scalar . 	ttl 	1000
scalar . 	variance 	0.05
scalar . 	window 	60
scalar barabasi_100nodes_network.content_distribution 	repo-0 	46
scalar barabasi_100nodes_network.content_distribution 	repo-1 	55
scalar barabasi_100nodes_network.content_distribution 	repo-2 	69
scalar barabasi_100nodes_network.content_distribution 	repo-3 	1
scalar barabasi_100nodes_network.content_distribution 	repo-4 	87
scalar barabasi_100nodes_network.content_distribution 	repo-5 	72
scalar barabasi_100nodes_network.content_distribution 	repo-6 	50
scalar barabasi_100nodes_network.content_distribution 	repo-7 	9
scalar barabasi_100nodes_network.content_distribution 	repo-8 	58
scalar barabasi_100nodes_network.content_distribution 	repo-9 	94
scalar barabasi_100nodes_network.content_distribution 	repo-10 	57
scalar barabasi_100nodes_network.content_distribution 	repo-11 	36
scalar barabasi_100nodes_network.content_distribution 	repo-12 	44
scalar barabasi_100nodes_network.content_distribution 	repo-13 	38
scalar barabasi_100nodes_network.content_distribution 	repo-14 	52
scalar barabasi_100nodes_network.content_distribution 	repo-15 	3
scalar barabasi_100nodes_network.content_distribution 	repo-16 	0
scalar barabasi_100nodes_network.content_distribution 	repo-17 	21
scalar barabasi_100nodes_network.content_distribution 	repo-18 	73
scalar barabasi_100nodes_network.content_distribution 	repo-19 	56
scalar barabasi_100nodes_network.content_distribution 	repo-20 	66
scalar barabasi_100nodes_network.content_distribution 	repo-21 	30
scalar barabasi_100nodes_network.content_distribution 	repo-22 	8
scalar barabasi_100nodes_network.content_distribution 	repo-23 	49
scalar barabasi_100nodes_network.content_distribution 	repo-24 	32
scalar barabasi_100nodes_network.content_distribution 	repo-25 	40
scalar barabasi_100nodes_network.content_distribution 	repo-26 	42
scalar barabasi_100nodes_network.content_distribution 	repo-27 	45
scalar barabasi_100nodes_network.content_distribution 	repo-28 	33
scalar barabasi_100nodes_network.content_distribution 	repo-29 	28
scalar barabasi_100nodes_network.content_distribution 	repo-30 	79
scalar barabasi_100nodes_network.content_distribution 	repo-31 	98
scalar barabasi_100nodes_network.content_distribution 	repo-32 	95
scalar barabasi_100nodes_network.content_distribution 	repo-33 	17
scalar barabasi_100nodes_network.content_distribution 	repo-34 	81
scalar barabasi_100nodes_network.content_distribution 	repo-35 	89
scalar barabasi_100nodes_network.content_distribution 	repo-36 	59
scalar barabasi_100nodes_network.content_distribution 	repo-37 	48
scalar barabasi_100nodes_network.content_distribution 	repo-38 	76
scalar barabasi_100nodes_network.content_distribution 	repo-39 	23
scalar barabasi_100nodes_network.content_distribution 	repo-40 	22
scalar barabasi_100nodes_network.content_distribution 	repo-41 	67
scalar barabasi_100nodes_network.content_distribution 	repo-42 	62
scalar barabasi_100nodes_network.content_distribution 	repo-43 	75
scalar barabasi_100nodes_network.content_distribution 	repo-44 	70
scalar barabasi_100nodes_network.content_distribution 	repo-45 	71
scalar barabasi_100nodes_network.content_distribution 	repo-46 	82
scalar barabasi_100nodes_network.content_distribution 	repo-47 	53
scalar barabasi_100nodes_network.content_distribution 	repo-48 	85
scalar barabasi_100nodes_network.content_distribution 	repo-49 	91
scalar barabasi_100nodes_network.content_distribution 	repo-50 	51
scalar barabasi_100nodes_network.content_distribution 	repo-51 	37
scalar barabasi_100nodes_network.content_distribution 	repo-52 	54
scalar barabasi_100nodes_network.content_distribution 	repo-53 	96
scalar barabasi_100nodes_network.content_distribution 	repo-54 	4
scalar barabasi_100nodes_network.content_distribution 	repo-55 	31
scalar barabasi_100nodes_network.content_distribution 	repo-56 	78
scalar barabasi_100nodes_network.content_distribution 	repo-57 	68
scalar barabasi_100nodes_network.content_distribution 	repo-58 	39
scalar barabasi_100nodes_network.content_distribution 	repo-59 	27
scalar barabasi_100nodes_network.content_distribution 	repo-60 	97
scalar barabasi_100nodes_network.content_distribution 	repo-61 	60
scalar barabasi_100nodes_network.content_distribution 	repo-62 	43
scalar barabasi_100nodes_network.content_distribution 	repo-63 	86
scalar barabasi_100nodes_network.content_distribution 	repo-64 	15
scalar barabasi_100nodes_network.content_distribution 	repo-65 	13
scalar barabasi_100nodes_network.content_distribution 	repo-66 	10
scalar barabasi_100nodes_network.content_distribution 	repo-67 	7
scalar barabasi_100nodes_network.content_distribution 	repo-68 	63
scalar barabasi_100nodes_network.content_distribution 	repo-69 	64
scalar barabasi_100nodes_network.content_distribution 	repo-70 	35
scalar barabasi_100nodes_network.content_distribution 	repo-71 	65
scalar barabasi_100nodes_network.content_distribution 	repo-72 	74
scalar barabasi_100nodes_network.content_distribution 	repo-73 	20
scalar barabasi_100nodes_network.content_distribution 	repo-74 	80
scalar barabasi_100nodes_network.content_distribution 	repo-75 	41
scalar barabasi_100nodes_network.content_distribution 	repo-76 	25
scalar barabasi_100nodes_network.content_distribution 	repo-77 	5
scalar barabasi_100nodes_network.content_distribution 	repo-78 	24
scalar barabasi_100nodes_network.content_distribution 	repo-79 	29
scalar barabasi_100nodes_network.content_distribution 	repo-80 	93
scalar barabasi_100nodes_network.content_distribution 	repo-81 	61
scalar barabasi_100nodes_network.content_distribution 	repo-82 	2
scalar barabasi_100nodes_network.content_distribution 	repo-83 	19
scalar barabasi_100nodes_network.content_distribution 	repo-84 	99
scalar barabasi_100nodes_network.content_distribution 	repo-85 	16
scalar barabasi_100nodes_network.content_distribution 	repo-86 	90
scalar barabasi_100nodes_network.content_distribution 	repo-87 	77
scalar barabasi_100nodes_network.content_distribution 	repo-88 	12
scalar barabasi_100nodes_network.content_distribution 	repo-89 	26
scalar barabasi_100nodes_network.content_distribution 	repo-90 	34
scalar barabasi_100nodes_network.content_distribution 	repo-91 	88
scalar barabasi_100nodes_network.content_distribution 	repo-92 	18
scalar barabasi_100nodes_network.content_distribution 	repo-93 	83
scalar barabasi_100nodes_network.content_distribution 	repo-94 	84
scalar barabasi_100nodes_network.content_distribution 	repo-95 	92
scalar barabasi_100nodes_network.content_distribution 	repo-96 	14
scalar barabasi_100nodes_network.content_distribution 	repo-97 	6
scalar barabasi_100nodes_network.content_distribution 	repo-98 	47
scalar barabasi_100nodes_network.content_distribution 	repo-99 	11
scalar barabasi_100nodes_network.content_distribution 	client-0 	3
scalar barabasi_100nodes_network.content_distribution 	client-1 	71
scalar barabasi_100nodes_network.content_distribution 	client-2 	78
scalar barabasi_100nodes_network.content_distribution 	client-3 	12
scalar barabasi_100nodes_network.content_distribution 	client-4 	7
scalar barabasi_100nodes_network.content_distribution 	client-5 	81
scalar barabasi_100nodes_network.content_distribution 	client-6 	86
scalar barabasi_100nodes_network.content_distribution 	client-7 	80
scalar barabasi_100nodes_network.content_distribution 	client-8 	79
scalar barabasi_100nodes_network.content_distribution 	client-9 	64
scalar barabasi_100nodes_network.content_distribution 	client-10 	10
scalar barabasi_100nodes_network.content_distribution 	client-11 	31
scalar barabasi_100nodes_network.content_distribution 	client-12 	45
scalar barabasi_100nodes_network.content_distribution 	client-13 	39
scalar barabasi_100nodes_network.content_distribution 	client-14 	84
scalar barabasi_100nodes_network.content_distribution 	client-15 	95
scalar barabasi_100nodes_network.content_distribution 	client-16 	48
scalar barabasi_100nodes_network.content_distribution 	client-17 	29
scalar barabasi_100nodes_network.content_distribution 	client-18 	43
scalar barabasi_100nodes_network.content_distribution 	client-19 	0
scalar barabasi_100nodes_network.content_distribution 	client-20 	8
scalar barabasi_100nodes_network.content_distribution 	client-21 	57
scalar barabasi_100nodes_network.content_distribution 	client-22 	38
scalar barabasi_100nodes_network.content_distribution 	client-23 	90
scalar barabasi_100nodes_network.content_distribution 	client-24 	54
scalar barabasi_100nodes_network.content_distribution 	client-25 	24
scalar barabasi_100nodes_network.content_distribution 	client-26 	52
scalar barabasi_100nodes_network.content_distribution 	client-27 	67
scalar barabasi_100nodes_network.content_distribution 	client-28 	44
scalar barabasi_100nodes_network.content_distribution 	client-29 	82
scalar barabasi_100nodes_network.content_distribution 	client-30 	14
scalar barabasi_100nodes_network.content_distribution 	client-31 	49
scalar barabasi_100nodes_network.content_distribution 	client-32 	6
scalar barabasi_100nodes_network.content_distribution 	client-33 	91
scalar barabasi_100nodes_network.content_distribution 	client-34 	60
scalar barabasi_100nodes_network.content_distribution 	client-35 	75
scalar barabasi_100nodes_network.content_distribution 	client-36 	59
scalar barabasi_100nodes_network.content_distribution 	client-37 	32
scalar barabasi_100nodes_network.content_distribution 	client-38 	15
scalar barabasi_100nodes_network.content_distribution 	client-39 	85
scalar barabasi_100nodes_network.content_distribution 	client-40 	62
scalar barabasi_100nodes_network.content_distribution 	client-41 	16
scalar barabasi_100nodes_network.content_distribution 	client-42 	21
scalar barabasi_100nodes_network.content_distribution 	client-43 	70
scalar barabasi_100nodes_network.content_distribution 	client-44 	5
scalar barabasi_100nodes_network.content_distribution 	client-45 	65
scalar barabasi_100nodes_network.content_distribution 	client-46 	30
scalar barabasi_100nodes_network.content_distribution 	client-47 	35
scalar barabasi_100nodes_network.content_distribution 	client-48 	46
scalar barabasi_100nodes_network.content_distribution 	client-49 	55
scalar barabasi_100nodes_network.content_distribution 	client-50 	2
scalar barabasi_100nodes_network.content_distribution 	client-51 	88
scalar barabasi_100nodes_network.content_distribution 	client-52 	41
scalar barabasi_100nodes_network.content_distribution 	client-53 	93
scalar barabasi_100nodes_network.content_distribution 	client-54 	69
scalar barabasi_100nodes_network.content_distribution 	client-55 	94
scalar barabasi_100nodes_network.content_distribution 	client-56 	56
scalar barabasi_100nodes_network.content_distribution 	client-57 	11
scalar barabasi_100nodes_network.content_distribution 	client-58 	22
scalar barabasi_100nodes_network.content_distribution 	client-59 	68
scalar barabasi_100nodes_network.content_distribution 	client-60 	97
scalar barabasi_100nodes_network.content_distribution 	client-61 	37
scalar barabasi_100nodes_network.content_distribution 	client-62 	9
scalar barabasi_100nodes_network.content_distribution 	client-63 	28
scalar barabasi_100nodes_network.content_distribution 	client-64 	83
scalar barabasi_100nodes_network.content_distribution 	client-65 	50
scalar barabasi_100nodes_network.content_distribution 	client-66 	61
scalar barabasi_100nodes_network.content_distribution 	client-67 	26
scalar barabasi_100nodes_network.content_distribution 	client-68 	53
scalar barabasi_100nodes_network.content_distribution 	client-69 	1
scalar barabasi_100nodes_network.content_distribution 	client-70 	73
scalar barabasi_100nodes_network.content_distribution 	client-71 	92
scalar barabasi_100nodes_network.content_distribution 	client-72 	72
scalar barabasi_100nodes_network.content_distribution 	client-73 	40
scalar barabasi_100nodes_network.content_distribution 	client-74 	87
scalar barabasi_100nodes_network.content_distribution 	client-75 	66
scalar barabasi_100nodes_network.content_distribution 	client-76 	42
scalar barabasi_100nodes_network.content_distribution 	client-77 	89
scalar barabasi_100nodes_network.content_distribution 	client-78 	96
scalar barabasi_100nodes_network.content_distribution 	client-79 	47
scalar barabasi_100nodes_network.content_distribution 	client-80 	18
scalar barabasi_100nodes_network.content_distribution 	client-81 	33
scalar barabasi_100nodes_network.content_distribution 	client-82 	17
scalar barabasi_100nodes_network.content_distribution 	client-83 	51
scalar barabasi_100nodes_network.content_distribution 	client-84 	34
scalar barabasi_100nodes_network.content_distribution 	client-85 	4
scalar barabasi_100nodes_network.content_distribution 	client-86 	76
scalar barabasi_100nodes_network.content_distribution 	client-87 	13
scalar barabasi_100nodes_network.content_distribution 	client-88 	36
scalar barabasi_100nodes_network.content_distribution 	client-89 	58
scalar barabasi_100nodes_network.content_distribution 	client-90 	74
scalar barabasi_100nodes_network.content_distribution 	client-91 	23
scalar barabasi_100nodes_network.content_distribution 	client-92 	25
scalar barabasi_100nodes_network.content_distribution 	client-93 	77
scalar barabasi_100nodes_network.content_distribution 	client-94 	98
scalar barabasi_100nodes_network.content_distribution 	client-95 	27
scalar barabasi_100nodes_network.content_distribution 	client-96 	99
scalar barabasi_100nodes_network.content_distribution 	client-97 	19
scalar barabasi_100nodes_network.content_distribution 	client-98 	20
scalar barabasi_100nodes_network.content_distribution 	client-99 	63
scalar barabasi_100nodes_network.content_distribution 	repo-0_card 	249719
scalar barabasi_100nodes_network.content_distribution 	repo-0_price 	0
scalar barabasi_100nodes_network.content_distribution 	repo-1_card 	249423
scalar barabasi_100nodes_network.content_distribution 	repo-1_price 	0
scalar barabasi_100nodes_network.content_distribution 	repo-2_card 	249931
scalar barabasi_100nodes_network.content_distribution 	repo-2_price 	0
scalar barabasi_100nodes_network.content_distribution 	repo-3_card 	250927
scalar barabasi_100nodes_network.content_distribution 	repo-3_price 	0
scalar barabasi_100nodes_network.content_distribution 	repo-4_card 	0
scalar barabasi_100nodes_network.content_distribution 	repo-4_price 	0
scalar barabasi_100nodes_network.content_distribution 	repo-5_card 	0
scalar barabasi_100nodes_network.content_distribution 	repo-5_price 	0
scalar barabasi_100nodes_network.content_distribution 	repo-6_card 	0
scalar barabasi_100nodes_network.content_distribution 	repo-6_price 	0
scalar barabasi_100nodes_network.content_distribution 	repo-7_card 	0
scalar barabasi_100nodes_network.content_distribution 	repo-7_price 	0
scalar barabasi_100nodes_network.content_distribution 	repo-8_card 	0
scalar barabasi_100nodes_network.content_distribution 	repo-8_price 	0
scalar barabasi_100nodes_network.content_distribution 	repo-9_card 	0
scalar barabasi_100nodes_network.content_distribution 	repo-9_price 	0
scalar barabasi_100nodes_network.content_distribution 	repo-10_card 	0
scalar barabasi_100nodes_network.content_distribution 	repo-10_price 	0
scalar barabasi_100nodes_network.content_distribution 	repo-11_card 	0
scalar barabasi_100nodes_network.content_distribution 	repo-11_price 	0
scalar barabasi_100nodes_network.content_distribution 	repo-12_card 	0
scalar barabasi_100nodes_network.content_distribution 	repo-12_price 	0
scalar barabasi_100nodes_network.content_distribution 	repo-13_card 	0
scalar barabasi_100nodes_network.content_distribution 	repo-13_price 	0
scalar barabasi_100nodes_network.content_distribution 	repo-14_card 	0
scalar barabasi_100nodes_network.content_distribution 	repo-14_price 	0
scalar barabasi_100nodes_network.content_distribution 	repo-15_card 	0
scalar barabasi_100nodes_network.content_distribution 	repo-15_price 	0
scalar barabasi_100nodes_network.content_distribution 	repo-16_card 	0
scalar barabasi_100nodes_network.content_distribution 	repo-16_price 	0
scalar barabasi_100nodes_network.content_distribution 	repo-17_card 	0
scalar barabasi_100nodes_network.content_distribution 	repo-17_price 	0
scalar barabasi_100nodes_network.content_distribution 	repo-18_card 	0
scalar barabasi_100nodes_network.content_distribution 	repo-18_price 	0
scalar barabasi_100nodes_network.content_distribution 	repo-19_card 	0
scalar barabasi_100nodes_network.content_distribution 	repo-19_price 	0
scalar barabasi_100nodes_network.content_distribution 	repo-20_card 	0
scalar barabasi_100nodes_network.content_distribution 	repo-20_price 	0
scalar barabasi_100nodes_network.content_distribution 	repo-21_card 	0
scalar barabasi_100nodes_network.content_distribution 	repo-21_price 	0
scalar barabasi_100nodes_network.content_distribution 	repo-22_card 	0
scalar barabasi_100nodes_network.content_distribution 	repo-22_price 	0
scalar barabasi_100nodes_network.content_distribution 	repo-23_card 	0
scalar barabasi_100nodes_network.content_distribution 	repo-23_price 	0
scalar barabasi_100nodes_network.content_distribution 	repo-24_card 	0
scalar barabasi_100nodes_network.content_distribution 	repo-24_price 	0
scalar barabasi_100nodes_network.content_distribution 	repo-25_card 	0
scalar barabasi_100nodes_network.content_distribution 	repo-25_price 	0
scalar barabasi_100nodes_network.content_distribution 	repo-26_card 	0
scalar barabasi_100nodes_network.content_distribution 	repo-26_price 	0
scalar barabasi_100nodes_network.content_distribution 	repo-27_card 	0
scalar barabasi_100nodes_network.content_distribution 	repo-27_price 	0
scalar barabasi_100nodes_network.content_distribution 	repo-28_card 	0
scalar barabasi_100nodes_network.content_distribution 	repo-28_price 	0
scalar barabasi_100nodes_network.content_distribution 	repo-29_card 	0
scalar barabasi_100nodes_network.content_distribution 	repo-29_price 	0
scalar barabasi_100nodes_network.content_distribution 	repo-30_card 	0
scalar barabasi_100nodes_network.content_distribution 	repo-30_price 	0
scalar barabasi_100nodes_network.content_distribution 	repo-31_card 	0
scalar barabasi_100nodes_network.content_distribution 	repo-31_price 	0
scalar barabasi_100nodes_network.content_distribution 	repo-32_card 	0
scalar barabasi_100nodes_network.content_distribution 	repo-32_price 	0
scalar barabasi_100nodes_network.content_distribution 	repo-33_card 	0
scalar barabasi_100nodes_network.content_distribution 	repo-33_price 	0
scalar barabasi_100nodes_network.content_distribution 	repo-34_card 	0
scalar barabasi_100nodes_network.content_distribution 	repo-34_price 	0
scalar barabasi_100nodes_network.content_distribution 	repo-35_card 	0
scalar barabasi_100nodes_network.content_distribution 	repo-35_price 	0
scalar barabasi_100nodes_network.content_distribution 	repo-36_card 	0
scalar barabasi_100nodes_network.content_distribution 	repo-36_price 	0
scalar barabasi_100nodes_network.content_distribution 	repo-37_card 	0
scalar barabasi_100nodes_network.content_distribution 	repo-37_price 	0
scalar barabasi_100nodes_network.content_distribution 	repo-38_card 	0
scalar barabasi_100nodes_network.content_distribution 	repo-38_price 	0
scalar barabasi_100nodes_network.content_distribution 	repo-39_card 	0
scalar barabasi_100nodes_network.content_distribution 	repo-39_price 	0
scalar barabasi_100nodes_network.content_distribution 	repo-40_card 	0
scalar barabasi_100nodes_network.content_distribution 	repo-40_price 	0
scalar barabasi_100nodes_network.content_distribution 	repo-41_card 	0
scalar barabasi_100nodes_network.content_distribution 	repo-41_price 	0
scalar barabasi_100nodes_network.content_distribution 	repo-42_card 	0
scalar barabasi_100nodes_network.content_distribution 	repo-42_price 	0
scalar barabasi_100nodes_network.content_distribution 	repo-43_card 	0
scalar barabasi_100nodes_network.content_distribution 	repo-43_price 	0
scalar barabasi_100nodes_network.content_distribution 	repo-44_card 	0
scalar barabasi_100nodes_network.content_distribution 	repo-44_price 	0
scalar barabasi_100nodes_network.content_distribution 	repo-45_card 	0
scalar barabasi_100nodes_network.content_distribution 	repo-45_price 	0
scalar barabasi_100nodes_network.content_distribution 	repo-46_card 	0
scalar barabasi_100nodes_network.content_distribution 	repo-46_price 	0
scalar barabasi_100nodes_network.content_distribution 	repo-47_card 	0
scalar barabasi_100nodes_network.content_distribution 	repo-47_price 	0
scalar barabasi_100nodes_network.content_distribution 	repo-48_card 	0
scalar barabasi_100nodes_network.content_distribution 	repo-48_price 	0
scalar barabasi_100nodes_network.content_distribution 	repo-49_card 	0
scalar barabasi_100nodes_network.content_distribution 	repo-49_price 	0
scalar barabasi_100nodes_network.content_distribution 	repo-50_card 	0
scalar barabasi_100nodes_network.content_distribution 	repo-50_price 	0
scalar barabasi_100nodes_network.content_distribution 	repo-51_card 	0
scalar barabasi_100nodes_network.content_distribution 	repo-51_price 	0
scalar barabasi_100nodes_network.content_distribution 	repo-52_card 	0
scalar barabasi_100nodes_network.content_distribution 	repo-52_price 	0
scalar barabasi_100nodes_network.content_distribution 	repo-53_card 	0
scalar barabasi_100nodes_network.content_distribution 	repo-53_price 	0
scalar barabasi_100nodes_network.content_distribution 	repo-54_card 	0
scalar barabasi_100nodes_network.content_distribution 	repo-54_price 	0
scalar barabasi_100nodes_network.content_distribution 	repo-55_card 	0
scalar barabasi_100nodes_network.content_distribution 	repo-55_price 	0
scalar barabasi_100nodes_network.content_distribution 	repo-56_card 	0
scalar barabasi_100nodes_network.content_distribution 	repo-56_price 	0
scalar barabasi_100nodes_network.content_distribution 	repo-57_card 	0
scalar barabasi_100nodes_network.content_distribution 	repo-57_price 	0
scalar barabasi_100nodes_network.content_distribution 	repo-58_card 	0
scalar barabasi_100nodes_network.content_distribution 	repo-58_price 	0
scalar barabasi_100nodes_network.content_distribution 	repo-59_card 	0
scalar barabasi_100nodes_network.content_distribution 	repo-59_price 	0
scalar barabasi_100nodes_network.content_distribution 	repo-60_card 	0
scalar barabasi_100nodes_network.content_distribution 	repo-60_price 	0
scalar barabasi_100nodes_network.content_distribution 	repo-61_card 	0
scalar barabasi_100nodes_network.content_distribution 	repo-61_price 	0
scalar barabasi_100nodes_network.content_distribution 	repo-62_card 	0
scalar barabasi_100nodes_network.content_distribution 	repo-62_price 	0
scalar barabasi_100nodes_network.content_distribution 	repo-63_card 	0
scalar barabasi_100nodes_network.content_distribution 	repo-63_price 	0
scalar barabasi_100nodes_network.content_distribution 	repo-64_card 	0
scalar barabasi_100nodes_network.content_distribution 	repo-64_price 	0
scalar barabasi_100nodes_network.content_distribution 	repo-65_card 	0
scalar barabasi_100nodes_network.content_distribution 	repo-65_price 	0
scalar barabasi_100nodes_network.content_distribution 	repo-66_card 	0
scalar barabasi_100nodes_network.content_distribution 	repo-66_price 	0
scalar barabasi_100nodes_network.content_distribution 	repo-67_card 	0
scalar barabasi_100nodes_network.content_distribution 	repo-67_price 	0
scalar barabasi_100nodes_network.content_distribution 	repo-68_card 	0
scalar barabasi_100nodes_network.content_distribution 	repo-68_price 	0
scalar barabasi_100nodes_network.content_distribution 	repo-69_card 	0
scalar barabasi_100nodes_network.content_distribution 	repo-69_price 	0
scalar barabasi_100nodes_network.content_distribution 	repo-70_card 	0
scalar barabasi_100nodes_network.content_distribution 	repo-70_price 	0
scalar barabasi_100nodes_network.content_distribution 	repo-71_card 	0
scalar barabasi_100nodes_network.content_distribution 	repo-71_price 	0
scalar barabasi_100nodes_network.content_distribution 	repo-72_card 	0
scalar barabasi_100nodes_network.content_distribution 	repo-72_price 	0
scalar barabasi_100nodes_network.content_distribution 	repo-73_card 	0
scalar barabasi_100nodes_network.content_distribution 	repo-73_price 	0
scalar barabasi_100nodes_network.content_distribution 	repo-74_card 	0
scalar barabasi_100nodes_network.content_distribution 	repo-74_price 	0
scalar barabasi_100nodes_network.content_distribution 	repo-75_card 	0
scalar barabasi_100nodes_network.content_distribution 	repo-75_price 	0
scalar barabasi_100nodes_network.content_distribution 	repo-76_card 	0
scalar barabasi_100nodes_network.content_distribution 	repo-76_price 	0
scalar barabasi_100nodes_network.content_distribution 	repo-77_card 	0
scalar barabasi_100nodes_network.content_distribution 	repo-77_price 	0
scalar barabasi_100nodes_network.content_distribution 	repo-78_card 	0
scalar barabasi_100nodes_network.content_distribution 	repo-78_price 	0
scalar barabasi_100nodes_network.content_distribution 	repo-79_card 	0
scalar barabasi_100nodes_network.content_distribution 	repo-79_price 	0
scalar barabasi_100nodes_network.content_distribution 	repo-80_card 	0
scalar barabasi_100nodes_network.content_distribution 	repo-80_price 	0
scalar barabasi_100nodes_network.content_distribution 	repo-81_card 	0
scalar barabasi_100nodes_network.content_distribution 	repo-81_price 	0
scalar barabasi_100nodes_network.content_distribution 	repo-82_card 	0
scalar barabasi_100nodes_network.content_distribution 	repo-82_price 	0
scalar barabasi_100nodes_network.content_distribution 	repo-83_card 	0
scalar barabasi_100nodes_network.content_distribution 	repo-83_price 	0
scalar barabasi_100nodes_network.content_distribution 	repo-84_card 	0
scalar barabasi_100nodes_network.content_distribution 	repo-84_price 	0
scalar barabasi_100nodes_network.content_distribution 	repo-85_card 	0
scalar barabasi_100nodes_network.content_distribution 	repo-85_price 	0
scalar barabasi_100nodes_network.content_distribution 	repo-86_card 	0
scalar barabasi_100nodes_network.content_distribution 	repo-86_price 	0
scalar barabasi_100nodes_network.content_distribution 	repo-87_card 	0
scalar barabasi_100nodes_network.content_distribution 	repo-87_price 	0
scalar barabasi_100nodes_network.content_distribution 	repo-88_card 	0
scalar barabasi_100nodes_network.content_distribution 	repo-88_price 	0
scalar barabasi_100nodes_network.content_distribution 	repo-89_card 	0
scalar barabasi_100nodes_network.content_distribution 	repo-89_price 	0
scalar barabasi_100nodes_network.content_distribution 	repo-90_card 	0
scalar barabasi_100nodes_network.content_distribution 	repo-90_price 	0
scalar barabasi_100nodes_network.content_distribution 	repo-91_card 	0
scalar barabasi_100nodes_network.content_distribution 	repo-91_price 	0
scalar barabasi_100nodes_network.content_distribution 	repo-92_card 	0
scalar barabasi_100nodes_network.content_distribution 	repo-92_price 	0
scalar barabasi_100nodes_network.content_distribution 	repo-93_card 	0
scalar barabasi_100nodes_network.content_distribution 	repo-93_price 	0
scalar barabasi_100nodes_network.content_distribution 	repo-94_card 	0
scalar barabasi_100nodes_network.content_distribution 	repo-94_price 	0
scalar barabasi_100nodes_network.content_distribution 	repo-95_card 	0
scalar barabasi_100nodes_network.content_distribution 	repo-95_price 	0
scalar barabasi_100nodes_network.content_distribution 	repo-96_card 	0
scalar barabasi_100nodes_network.content_distribution 	repo-96_price 	0
scalar barabasi_100nodes_network.content_distribution 	repo-97_card 	0
scalar barabasi_100nodes_network.content_distribution 	repo-97_price 	0
scalar barabasi_100nodes_network.content_distribution 	repo-98_card 	0
scalar barabasi_100nodes_network.content_distribution 	repo-98_price 	0
scalar barabasi_100nodes_network.content_distribution 	repo-99_card 	0
scalar barabasi_100nodes_network.content_distribution 	repo-99_price 	0
scalar barabasi_100nodes_network.statistics 	stabilization_time 	356.5
scalar barabasi_100nodes_network.statistics 	p_hit 	0.24931148334873
scalar barabasi_100nodes_network.statistics 	interests 	447516.41
scalar barabasi_100nodes_network.statistics 	data 	267471.29
scalar barabasi_100nodes_network.statistics 	hdistance 	1.8658898635883
scalar barabasi_100nodes_network.statistics 	avg_time 	0
scalar barabasi_100nodes_network.statistics 	downloads 	18004512
scalar barabasi_100nodes_network.statistics 	total_cost 	0
scalar barabasi_100nodes_network.statistics 	total_replicas 	1000000
scalar barabasi_100nodes_network.statistics 	"representations_downloaded 1:" 	0
scalar barabasi_100nodes_network.statistics 	"slots_per_representation 100:" 	0
scalar barabasi_100nodes_network.statistics 	inner_hit 	0.61968344379453
scalar barabasi_100nodes_network.statistics 	execution_time 	877
scalar barabasi_100nodes_network.node[0].core_layer 	interests[0] 	2969380
scalar barabasi_100nodes_network.node[0].core_layer 	data[0] 	2608136
scalar barabasi_100nodes_network.node[0].core_layer 	slots_sent[face$o[1]->client[0]] 	18071900
scalar barabasi_100nodes_network.node[0].core_layer 	slots_sent[face$o[2]->node[1]] 	5744000
scalar barabasi_100nodes_network.node[0].core_layer 	slots_sent[face$o[3]->node[2]] 	106573100
scalar barabasi_100nodes_network.node[0].core_layer 	slots_sent[face$o[4]->node[5]] 	30251900
scalar barabasi_100nodes_network.node[0].core_layer 	slots_sent[face$o[5]->node[10]] 	11261500
scalar barabasi_100nodes_network.node[0].core_layer 	slots_sent[face$o[6]->node[11]] 	5764500
scalar barabasi_100nodes_network.node[0].core_layer 	slots_sent[face$o[7]->node[15]] 	16541300
scalar barabasi_100nodes_network.node[0].core_layer 	slots_sent[face$o[8]->node[21]] 	22947800
scalar barabasi_100nodes_network.node[0].core_layer 	slots_sent[face$o[9]->node[22]] 	8100900
scalar barabasi_100nodes_network.node[0].core_layer 	slots_sent[face$o[10]->node[28]] 	8113200
scalar barabasi_100nodes_network.node[0].core_layer 	slots_sent[face$o[11]->node[37]] 	8053300
scalar barabasi_100nodes_network.node[0].core_layer 	slots_sent[face$o[12]->node[44]] 	8108500
scalar barabasi_100nodes_network.node[0].core_layer 	slots_sent[face$o[13]->node[58]] 	15564800
scalar barabasi_100nodes_network.node[0].core_layer 	slots_sent[face$o[14]->node[73]] 	15636200
scalar barabasi_100nodes_network.node[0].core_layer 	slots_sent[face$o[15]->node[74]] 	8112900
scalar barabasi_100nodes_network.node[0].core_layer 	slots_sent[face$o[16]->node[93]] 	8092200
scalar barabasi_100nodes_network.node[0].content_store 	p_hit[0] 	0.1216563727108
scalar barabasi_100nodes_network.node[0].content_store 	hits[0] 	361244
scalar barabasi_100nodes_network.node[0].content_store 	misses[0] 	2608136
scalar barabasi_100nodes_network.node[0].content_store 	decision_yes[0] 	2608136
scalar barabasi_100nodes_network.node[0].content_store 	decision_no[0] 	0
scalar barabasi_100nodes_network.node[0].content_store 	decision_ratio[0] 	1
scalar barabasi_100nodes_network.node[1].core_layer 	interests[1] 	1505431
scalar barabasi_100nodes_network.node[1].core_layer 	repo_load[1] 	1379072
scalar barabasi_100nodes_network.node[1].core_layer 	data[1] 	57440
scalar barabasi_100nodes_network.node[1].core_layer 	slots_sent[face$o[1]->client[1]] 	18000700
scalar barabasi_100nodes_network.node[1].core_layer 	slots_sent[face$o[2]->node[0]] 	132542400
scalar barabasi_100nodes_network.node[1].content_store 	p_hit[1] 	0.045780244992962
scalar barabasi_100nodes_network.node[1].content_store 	hits[1] 	68919
scalar barabasi_100nodes_network.node[1].content_store 	misses[1] 	1436512
scalar barabasi_100nodes_network.node[1].content_store 	decision_yes[1] 	57440
scalar barabasi_100nodes_network.node[1].content_store 	decision_no[1] 	1379072
scalar barabasi_100nodes_network.node[1].content_store 	decision_ratio[1] 	0.039985743244748
scalar barabasi_100nodes_network.node[2].core_layer 	interests[2] 	6090342
scalar barabasi_100nodes_network.node[2].core_layer 	data[2] 	5463088
scalar barabasi_100nodes_network.node[2].core_layer 	slots_sent[face$o[1]->client[2]] 	18052200
scalar barabasi_100nodes_network.node[2].core_layer 	slots_sent[face$o[2]->node[0]] 	128271200
scalar barabasi_100nodes_network.node[2].core_layer 	slots_sent[face$o[3]->node[3]] 	15656300
scalar barabasi_100nodes_network.node[2].core_layer 	slots_sent[face$o[4]->node[4]] 	44534600
scalar barabasi_100nodes_network.node[2].core_layer 	slots_sent[face$o[5]->node[6]] 	5704800
scalar barabasi_100nodes_network.node[2].core_layer 	slots_sent[face$o[6]->node[7]] 	51295300
scalar barabasi_100nodes_network.node[2].core_layer 	slots_sent[face$o[7]->node[8]] 	54951100
scalar barabasi_100nodes_network.node[2].core_layer 	slots_sent[face$o[8]->node[13]] 	25362100
scalar barabasi_100nodes_network.node[2].core_layer 	slots_sent[face$o[9]->node[16]] 	49642500
scalar barabasi_100nodes_network.node[2].core_layer 	slots_sent[face$o[10]->node[18]] 	30234500
scalar barabasi_100nodes_network.node[2].core_layer 	slots_sent[face$o[11]->node[25]] 	15666500
scalar barabasi_100nodes_network.node[2].core_layer 	slots_sent[face$o[12]->node[26]] 	30128400
scalar barabasi_100nodes_network.node[2].core_layer 	slots_sent[face$o[13]->node[29]] 	8123300
scalar barabasi_100nodes_network.node[2].core_layer 	slots_sent[face$o[14]->node[32]] 	22957100
scalar barabasi_100nodes_network.node[2].core_layer 	slots_sent[face$o[15]->node[33]] 	8057100
scalar barabasi_100nodes_network.node[2].core_layer 	slots_sent[face$o[16]->node[34]] 	8058300
scalar barabasi_100nodes_network.node[2].core_layer 	slots_sent[face$o[17]->node[36]] 	15609300
scalar barabasi_100nodes_network.node[2].core_layer 	slots_sent[face$o[18]->node[41]] 	29399000
scalar barabasi_100nodes_network.node[2].core_layer 	slots_sent[face$o[19]->node[45]] 	8078100
scalar barabasi_100nodes_network.node[2].core_layer 	slots_sent[face$o[20]->node[59]] 	8122300
scalar barabasi_100nodes_network.node[2].core_layer 	slots_sent[face$o[21]->node[62]] 	23029100
scalar barabasi_100nodes_network.node[2].core_layer 	slots_sent[face$o[22]->node[79]] 	8101100
scalar barabasi_100nodes_network.node[2].content_store 	p_hit[2] 	0.10299158897809
scalar barabasi_100nodes_network.node[2].content_store 	hits[2] 	627254
scalar barabasi_100nodes_network.node[2].content_store 	misses[2] 	5463088
scalar barabasi_100nodes_network.node[2].content_store 	decision_yes[2] 	5463088
scalar barabasi_100nodes_network.node[2].content_store 	decision_no[2] 	0
scalar barabasi_100nodes_network.node[2].content_store 	decision_ratio[2] 	1
scalar barabasi_100nodes_network.node[3].core_layer 	interests[3] 	261826
scalar barabasi_100nodes_network.node[3].core_layer 	data[3] 	156563
scalar barabasi_100nodes_network.node[3].core_layer 	slots_sent[face$o[1]->client[3]] 	18073400
scalar barabasi_100nodes_network.node[3].core_layer 	slots_sent[face$o[2]->node[2]] 	0
scalar barabasi_100nodes_network.node[3].core_layer 	slots_sent[face$o[3]->node[52]] 	8109200
scalar barabasi_100nodes_network.node[3].content_store 	p_hit[3] 	0.40203417536837
scalar barabasi_100nodes_network.node[3].content_store 	hits[3] 	105263
scalar barabasi_100nodes_network.node[3].content_store 	misses[3] 	156563
scalar barabasi_100nodes_network.node[3].content_store 	decision_yes[3] 	156563
scalar barabasi_100nodes_network.node[3].content_store 	decision_no[3] 	0
scalar barabasi_100nodes_network.node[3].content_store 	decision_ratio[3] 	1
scalar barabasi_100nodes_network.node[4].core_layer 	interests[4] 	575362
scalar barabasi_100nodes_network.node[4].core_layer 	data[4] 	445346
scalar barabasi_100nodes_network.node[4].core_layer 	slots_sent[face$o[1]->client[4]] 	18014700
scalar barabasi_100nodes_network.node[4].core_layer 	slots_sent[face$o[2]->node[2]] 	0
scalar barabasi_100nodes_network.node[4].core_layer 	slots_sent[face$o[3]->node[27]] 	15702400
scalar barabasi_100nodes_network.node[4].core_layer 	slots_sent[face$o[4]->node[30]] 	15678500
scalar barabasi_100nodes_network.node[4].core_layer 	slots_sent[face$o[5]->node[85]] 	8140600
scalar barabasi_100nodes_network.node[4].content_store 	p_hit[4] 	0.22597251817117
scalar barabasi_100nodes_network.node[4].content_store 	hits[4] 	130016
scalar barabasi_100nodes_network.node[4].content_store 	misses[4] 	445346
scalar barabasi_100nodes_network.node[4].content_store 	decision_yes[4] 	445346
scalar barabasi_100nodes_network.node[4].content_store 	decision_no[4] 	0
scalar barabasi_100nodes_network.node[4].content_store 	decision_ratio[4] 	1
scalar barabasi_100nodes_network.node[5].core_layer 	interests[5] 	418184
scalar barabasi_100nodes_network.node[5].core_layer 	data[5] 	302519
scalar barabasi_100nodes_network.node[5].core_layer 	slots_sent[face$o[1]->client[5]] 	18008700
scalar barabasi_100nodes_network.node[5].core_layer 	slots_sent[face$o[2]->node[0]] 	0
scalar barabasi_100nodes_network.node[5].core_layer 	slots_sent[face$o[3]->node[9]] 	8143600
scalar barabasi_100nodes_network.node[5].core_layer 	slots_sent[face$o[4]->node[35]] 	15666100
scalar barabasi_100nodes_network.node[5].content_store 	p_hit[5] 	0.27658877431944
scalar barabasi_100nodes_network.node[5].content_store 	hits[5] 	115665
scalar barabasi_100nodes_network.node[5].content_store 	misses[5] 	302519
scalar barabasi_100nodes_network.node[5].content_store 	decision_yes[5] 	302519
scalar barabasi_100nodes_network.node[5].content_store 	decision_no[5] 	0
scalar barabasi_100nodes_network.node[5].content_store 	decision_ratio[5] 	1
scalar barabasi_100nodes_network.node[6].core_layer 	interests[6] 	179493
scalar barabasi_100nodes_network.node[6].core_layer 	repo_load[6] 	41164
scalar barabasi_100nodes_network.node[6].core_layer 	data[6] 	57048
scalar barabasi_100nodes_network.node[6].core_layer 	slots_sent[face$o[1]->client[6]] 	17949300
scalar barabasi_100nodes_network.node[6].core_layer 	slots_sent[face$o[2]->node[2]] 	0
scalar barabasi_100nodes_network.node[6].content_store 	p_hit[6] 	0.45283660087023
scalar barabasi_100nodes_network.node[6].content_store 	hits[6] 	81281
scalar barabasi_100nodes_network.node[6].content_store 	misses[6] 	98212
scalar barabasi_100nodes_network.node[6].content_store 	decision_yes[6] 	57048
scalar barabasi_100nodes_network.node[6].content_store 	decision_no[6] 	41164
scalar barabasi_100nodes_network.node[6].content_store 	decision_ratio[6] 	0.58086588196962
scalar barabasi_100nodes_network.node[7].core_layer 	interests[7] 	2445866
scalar barabasi_100nodes_network.node[7].core_layer 	repo_load[7] 	310085
scalar barabasi_100nodes_network.node[7].core_layer 	data[7] 	1843423
scalar barabasi_100nodes_network.node[7].core_layer 	slots_sent[face$o[1]->client[7]] 	17982900
scalar barabasi_100nodes_network.node[7].core_layer 	slots_sent[face$o[2]->node[2]] 	141854900
scalar barabasi_100nodes_network.node[7].core_layer 	slots_sent[face$o[3]->node[23]] 	40295500
scalar barabasi_100nodes_network.node[7].core_layer 	slots_sent[face$o[4]->node[31]] 	28306600
scalar barabasi_100nodes_network.node[7].core_layer 	slots_sent[face$o[5]->node[49]] 	8045800
scalar barabasi_100nodes_network.node[7].core_layer 	slots_sent[face$o[6]->node[90]] 	8100900
scalar barabasi_100nodes_network.node[7].content_store 	p_hit[7] 	0.11953148700706
scalar barabasi_100nodes_network.node[7].content_store 	hits[7] 	292358
scalar barabasi_100nodes_network.node[7].content_store 	misses[7] 	2153508
scalar barabasi_100nodes_network.node[7].content_store 	decision_yes[7] 	1843423
scalar barabasi_100nodes_network.node[7].content_store 	decision_no[7] 	310085
scalar barabasi_100nodes_network.node[7].content_store 	decision_ratio[7] 	0.85600935775488
scalar barabasi_100nodes_network.node[8].core_layer 	interests[8] 	693952
scalar barabasi_100nodes_network.node[8].core_layer 	data[8] 	549511
scalar barabasi_100nodes_network.node[8].core_layer 	slots_sent[face$o[1]->client[8]] 	17999600
scalar barabasi_100nodes_network.node[8].core_layer 	slots_sent[face$o[2]->node[2]] 	0
scalar barabasi_100nodes_network.node[8].core_layer 	slots_sent[face$o[3]->node[12]] 	8126800
scalar barabasi_100nodes_network.node[8].core_layer 	slots_sent[face$o[4]->node[14]] 	5772300
scalar barabasi_100nodes_network.node[8].core_layer 	slots_sent[face$o[5]->node[17]] 	5722200
scalar barabasi_100nodes_network.node[8].core_layer 	slots_sent[face$o[6]->node[39]] 	15568400
scalar barabasi_100nodes_network.node[8].core_layer 	slots_sent[face$o[7]->node[61]] 	8090900
scalar barabasi_100nodes_network.node[8].core_layer 	slots_sent[face$o[8]->node[66]] 	8115000
scalar barabasi_100nodes_network.node[8].content_store 	p_hit[8] 	0.20814263810753
scalar barabasi_100nodes_network.node[8].content_store 	hits[8] 	144441
scalar barabasi_100nodes_network.node[8].content_store 	misses[8] 	549511
scalar barabasi_100nodes_network.node[8].content_store 	decision_yes[8] 	549511
scalar barabasi_100nodes_network.node[8].content_store 	decision_no[8] 	0
scalar barabasi_100nodes_network.node[8].content_store 	decision_ratio[8] 	1
scalar barabasi_100nodes_network.node[9].core_layer 	interests[9] 	180117
scalar barabasi_100nodes_network.node[9].core_layer 	data[9] 	81436
scalar barabasi_100nodes_network.node[9].core_layer 	slots_sent[face$o[1]->client[9]] 	18011700
scalar barabasi_100nodes_network.node[9].core_layer 	slots_sent[face$o[2]->node[5]] 	0
scalar barabasi_100nodes_network.node[9].content_store 	p_hit[9] 	0.547871661198
scalar barabasi_100nodes_network.node[9].content_store 	hits[9] 	98681
scalar barabasi_100nodes_network.node[9].content_store 	misses[9] 	81436
scalar barabasi_100nodes_network.node[9].content_store 	decision_yes[9] 	81436
scalar barabasi_100nodes_network.node[9].content_store 	decision_no[9] 	0
scalar barabasi_100nodes_network.node[9].content_store 	decision_ratio[9] 	1
scalar barabasi_100nodes_network.node[10].core_layer 	interests[10] 	261376
scalar barabasi_100nodes_network.node[10].core_layer 	repo_load[10] 	54564
scalar barabasi_100nodes_network.node[10].core_layer 	data[10] 	112615
scalar barabasi_100nodes_network.node[10].core_layer 	slots_sent[face$o[1]->client[10]] 	18042300
scalar barabasi_100nodes_network.node[10].core_layer 	slots_sent[face$o[2]->node[0]] 	0
scalar barabasi_100nodes_network.node[10].core_layer 	slots_sent[face$o[3]->node[71]] 	8095300
scalar barabasi_100nodes_network.node[10].content_store 	p_hit[10] 	0.36038886508325
scalar barabasi_100nodes_network.node[10].content_store 	hits[10] 	94197
scalar barabasi_100nodes_network.node[10].content_store 	misses[10] 	167179
scalar barabasi_100nodes_network.node[10].content_store 	decision_yes[10] 	112615
scalar barabasi_100nodes_network.node[10].content_store 	decision_no[10] 	54564
scalar barabasi_100nodes_network.node[10].content_store 	decision_ratio[10] 	0.67361929428935
scalar barabasi_100nodes_network.node[11].core_layer 	interests[11] 	180672
scalar barabasi_100nodes_network.node[11].core_layer 	repo_load[11] 	54064
scalar barabasi_100nodes_network.node[11].core_layer 	data[11] 	57645
scalar barabasi_100nodes_network.node[11].core_layer 	slots_sent[face$o[1]->client[11]] 	18067200
scalar barabasi_100nodes_network.node[11].core_layer 	slots_sent[face$o[2]->node[0]] 	0
scalar barabasi_100nodes_network.node[11].content_store 	p_hit[11] 	0.38170275416224
scalar barabasi_100nodes_network.node[11].content_store 	hits[11] 	68963
scalar barabasi_100nodes_network.node[11].content_store 	misses[11] 	111709
scalar barabasi_100nodes_network.node[11].content_store 	decision_yes[11] 	57645
scalar barabasi_100nodes_network.node[11].content_store 	decision_no[11] 	54064
scalar barabasi_100nodes_network.node[11].content_store 	decision_ratio[11] 	0.51602825197612
scalar barabasi_100nodes_network.node[12].core_layer 	interests[12] 	180551
scalar barabasi_100nodes_network.node[12].core_layer 	data[12] 	81268
scalar barabasi_100nodes_network.node[12].core_layer 	slots_sent[face$o[1]->client[12]] 	18055100
scalar barabasi_100nodes_network.node[12].core_layer 	slots_sent[face$o[2]->node[8]] 	0
scalar barabasi_100nodes_network.node[12].content_store 	p_hit[12] 	0.5498889510443
scalar barabasi_100nodes_network.node[12].content_store 	hits[12] 	99283
scalar barabasi_100nodes_network.node[12].content_store 	misses[12] 	81268
scalar barabasi_100nodes_network.node[12].content_store 	decision_yes[12] 	81268
scalar barabasi_100nodes_network.node[12].content_store 	decision_no[12] 	0
scalar barabasi_100nodes_network.node[12].content_store 	decision_ratio[12] 	1
scalar barabasi_100nodes_network.node[13].core_layer 	interests[13] 	470755
scalar barabasi_100nodes_network.node[13].core_layer 	repo_load[13] 	117178
scalar barabasi_100nodes_network.node[13].core_layer 	data[13] 	253621
scalar barabasi_100nodes_network.node[13].core_layer 	slots_sent[face$o[1]->client[13]] 	17957500
scalar barabasi_100nodes_network.node[13].core_layer 	slots_sent[face$o[2]->node[2]] 	0
scalar barabasi_100nodes_network.node[13].core_layer 	slots_sent[face$o[3]->node[67]] 	8145600
scalar barabasi_100nodes_network.node[13].core_layer 	slots_sent[face$o[4]->node[78]] 	20972400
scalar barabasi_100nodes_network.node[13].content_store 	p_hit[13] 	0.21233125511147
scalar barabasi_100nodes_network.node[13].content_store 	hits[13] 	99956
scalar barabasi_100nodes_network.node[13].content_store 	misses[13] 	370799
scalar barabasi_100nodes_network.node[13].content_store 	decision_yes[13] 	253621
scalar barabasi_100nodes_network.node[13].content_store 	decision_no[13] 	117178
scalar barabasi_100nodes_network.node[13].content_store 	decision_ratio[13] 	0.68398512401598
scalar barabasi_100nodes_network.node[14].core_layer 	interests[14] 	180447
scalar barabasi_100nodes_network.node[14].core_layer 	repo_load[14] 	51747
scalar barabasi_100nodes_network.node[14].core_layer 	data[14] 	57723
scalar barabasi_100nodes_network.node[14].core_layer 	slots_sent[face$o[1]->client[14]] 	18044700
scalar barabasi_100nodes_network.node[14].core_layer 	slots_sent[face$o[2]->node[8]] 	0
scalar barabasi_100nodes_network.node[14].content_store 	p_hit[14] 	0.39333987264959
scalar barabasi_100nodes_network.node[14].content_store 	hits[14] 	70977
scalar barabasi_100nodes_network.node[14].content_store 	misses[14] 	109470
scalar barabasi_100nodes_network.node[14].content_store 	decision_yes[14] 	57723
scalar barabasi_100nodes_network.node[14].content_store 	decision_no[14] 	51747
scalar barabasi_100nodes_network.node[14].content_store 	decision_ratio[14] 	0.52729514935599
scalar barabasi_100nodes_network.node[15].core_layer 	interests[15] 	342806
scalar barabasi_100nodes_network.node[15].core_layer 	repo_load[15] 	92585
scalar barabasi_100nodes_network.node[15].core_layer 	data[15] 	165413
scalar barabasi_100nodes_network.node[15].core_layer 	slots_sent[face$o[1]->client[15]] 	18094000
scalar barabasi_100nodes_network.node[15].core_layer 	slots_sent[face$o[2]->node[0]] 	0
scalar barabasi_100nodes_network.node[15].core_layer 	slots_sent[face$o[3]->node[40]] 	8097300
scalar barabasi_100nodes_network.node[15].core_layer 	slots_sent[face$o[4]->node[56]] 	8089300
scalar barabasi_100nodes_network.node[15].content_store 	p_hit[15] 	0.24739356954079
scalar barabasi_100nodes_network.node[15].content_store 	hits[15] 	84808
scalar barabasi_100nodes_network.node[15].content_store 	misses[15] 	257998
scalar barabasi_100nodes_network.node[15].content_store 	decision_yes[15] 	165413
scalar barabasi_100nodes_network.node[15].content_store 	decision_no[15] 	92585
scalar barabasi_100nodes_network.node[15].content_store 	decision_ratio[15] 	0.64114062899712
scalar barabasi_100nodes_network.node[16].core_layer 	interests[16] 	615451
scalar barabasi_100nodes_network.node[16].core_layer 	data[16] 	496425
scalar barabasi_100nodes_network.node[16].core_layer 	slots_sent[face$o[1]->client[16]] 	17962200
scalar barabasi_100nodes_network.node[16].core_layer 	slots_sent[face$o[2]->node[2]] 	0
scalar barabasi_100nodes_network.node[16].core_layer 	slots_sent[face$o[3]->node[19]] 	35502700
scalar barabasi_100nodes_network.node[16].core_layer 	slots_sent[face$o[4]->node[20]] 	8080200
scalar barabasi_100nodes_network.node[16].content_store 	p_hit[16] 	0.19339638736471
scalar barabasi_100nodes_network.node[16].content_store 	hits[16] 	119026
scalar barabasi_100nodes_network.node[16].content_store 	misses[16] 	496425
scalar barabasi_100nodes_network.node[16].content_store 	decision_yes[16] 	496425
scalar barabasi_100nodes_network.node[16].content_store 	decision_no[16] 	0
scalar barabasi_100nodes_network.node[16].content_store 	decision_ratio[16] 	1
scalar barabasi_100nodes_network.node[17].core_layer 	interests[17] 	179406
scalar barabasi_100nodes_network.node[17].core_layer 	repo_load[17] 	40855
scalar barabasi_100nodes_network.node[17].core_layer 	data[17] 	57222
scalar barabasi_100nodes_network.node[17].core_layer 	slots_sent[face$o[1]->client[17]] 	17940600
scalar barabasi_100nodes_network.node[17].core_layer 	slots_sent[face$o[2]->node[8]] 	0
scalar barabasi_100nodes_network.node[17].content_store 	p_hit[17] 	0.45332374614004
scalar barabasi_100nodes_network.node[17].content_store 	hits[17] 	81329
scalar barabasi_100nodes_network.node[17].content_store 	misses[17] 	98077
scalar barabasi_100nodes_network.node[17].content_store 	decision_yes[17] 	57222
scalar barabasi_100nodes_network.node[17].content_store 	decision_no[17] 	40855
scalar barabasi_100nodes_network.node[17].content_store 	decision_ratio[17] 	0.58343954240036
scalar barabasi_100nodes_network.node[18].core_layer 	interests[18] 	422919
scalar barabasi_100nodes_network.node[18].core_layer 	data[18] 	302345
scalar barabasi_100nodes_network.node[18].core_layer 	slots_sent[face$o[1]->client[18]] 	18019700
scalar barabasi_100nodes_network.node[18].core_layer 	slots_sent[face$o[2]->node[2]] 	0
scalar barabasi_100nodes_network.node[18].core_layer 	slots_sent[face$o[3]->node[53]] 	8083100
scalar barabasi_100nodes_network.node[18].core_layer 	slots_sent[face$o[4]->node[68]] 	8082800
scalar barabasi_100nodes_network.node[18].core_layer 	slots_sent[face$o[5]->node[72]] 	8106300
scalar barabasi_100nodes_network.node[18].content_store 	p_hit[18] 	0.28509951078102
scalar barabasi_100nodes_network.node[18].content_store 	hits[18] 	120574
scalar barabasi_100nodes_network.node[18].content_store 	misses[18] 	302345
scalar barabasi_100nodes_network.node[18].content_store 	decision_yes[18] 	302345
scalar barabasi_100nodes_network.node[18].content_store 	decision_no[18] 	0
scalar barabasi_100nodes_network.node[18].content_store 	decision_ratio[18] 	1
scalar barabasi_100nodes_network.node[19].core_layer 	interests[19] 	480753
scalar barabasi_100nodes_network.node[19].core_layer 	data[19] 	355027
scalar barabasi_100nodes_network.node[19].core_layer 	slots_sent[face$o[1]->client[19]] 	18051700
scalar barabasi_100nodes_network.node[19].core_layer 	slots_sent[face$o[2]->node[16]] 	0
scalar barabasi_100nodes_network.node[19].core_layer 	slots_sent[face$o[3]->node[63]] 	8076400
scalar barabasi_100nodes_network.node[19].core_layer 	slots_sent[face$o[4]->node[70]] 	8090700
scalar barabasi_100nodes_network.node[19].core_layer 	slots_sent[face$o[5]->node[80]] 	8075100
scalar barabasi_100nodes_network.node[19].core_layer 	slots_sent[face$o[6]->node[89]] 	5781400
scalar barabasi_100nodes_network.node[19].content_store 	p_hit[19] 	0.26151890887836
scalar barabasi_100nodes_network.node[19].content_store 	hits[19] 	125726
scalar barabasi_100nodes_network.node[19].content_store 	misses[19] 	355027
scalar barabasi_100nodes_network.node[19].content_store 	decision_yes[19] 	355027
scalar barabasi_100nodes_network.node[19].content_store 	decision_no[19] 	0
scalar barabasi_100nodes_network.node[19].content_store 	decision_ratio[19] 	1
scalar barabasi_100nodes_network.node[20].core_layer 	interests[20] 	179849
scalar barabasi_100nodes_network.node[20].core_layer 	data[20] 	80802
scalar barabasi_100nodes_network.node[20].core_layer 	slots_sent[face$o[1]->client[20]] 	17984900
scalar barabasi_100nodes_network.node[20].core_layer 	slots_sent[face$o[2]->node[16]] 	0
scalar barabasi_100nodes_network.node[20].content_store 	p_hit[20] 	0.5507231066061
scalar barabasi_100nodes_network.node[20].content_store 	hits[20] 	99047
scalar barabasi_100nodes_network.node[20].content_store 	misses[20] 	80802
scalar barabasi_100nodes_network.node[20].content_store 	decision_yes[20] 	80802
scalar barabasi_100nodes_network.node[20].content_store 	decision_no[20] 	0
scalar barabasi_100nodes_network.node[20].content_store 	decision_ratio[20] 	1
scalar barabasi_100nodes_network.node[21].core_layer 	interests[21] 	341377
scalar barabasi_100nodes_network.node[21].core_layer 	data[21] 	229478
scalar barabasi_100nodes_network.node[21].core_layer 	slots_sent[face$o[1]->client[21]] 	17974000
scalar barabasi_100nodes_network.node[21].core_layer 	slots_sent[face$o[2]->node[0]] 	0
scalar barabasi_100nodes_network.node[21].core_layer 	slots_sent[face$o[3]->node[24]] 	8075600
scalar barabasi_100nodes_network.node[21].core_layer 	slots_sent[face$o[4]->node[57]] 	8088100
scalar barabasi_100nodes_network.node[21].content_store 	p_hit[21] 	0.32778716785255
scalar barabasi_100nodes_network.node[21].content_store 	hits[21] 	111899
scalar barabasi_100nodes_network.node[21].content_store 	misses[21] 	229478
scalar barabasi_100nodes_network.node[21].content_store 	decision_yes[21] 	229478
scalar barabasi_100nodes_network.node[21].content_store 	decision_no[21] 	0
scalar barabasi_100nodes_network.node[21].content_store 	decision_ratio[21] 	1
scalar barabasi_100nodes_network.node[22].core_layer 	interests[22] 	179788
scalar barabasi_100nodes_network.node[22].core_layer 	data[22] 	81009
scalar barabasi_100nodes_network.node[22].core_layer 	slots_sent[face$o[1]->client[22]] 	17978800
scalar barabasi_100nodes_network.node[22].core_layer 	slots_sent[face$o[2]->node[0]] 	0
scalar barabasi_100nodes_network.node[22].content_store 	p_hit[22] 	0.54941931608339
scalar barabasi_100nodes_network.node[22].content_store 	hits[22] 	98779
scalar barabasi_100nodes_network.node[22].content_store 	misses[22] 	81009
scalar barabasi_100nodes_network.node[22].content_store 	decision_yes[22] 	81009
scalar barabasi_100nodes_network.node[22].content_store 	decision_no[22] 	0
scalar barabasi_100nodes_network.node[22].content_store 	decision_ratio[22] 	1
scalar barabasi_100nodes_network.node[23].core_layer 	interests[23] 	1922917
scalar barabasi_100nodes_network.node[23].core_layer 	data[23] 	1787445
scalar barabasi_100nodes_network.node[23].core_layer 	slots_sent[face$o[1]->client[23]] 	17989500
scalar barabasi_100nodes_network.node[23].core_layer 	slots_sent[face$o[2]->node[7]] 	133047000
scalar barabasi_100nodes_network.node[23].core_layer 	slots_sent[face$o[3]->node[46]] 	11203100
scalar barabasi_100nodes_network.node[23].core_layer 	slots_sent[face$o[4]->node[47]] 	5754100
scalar barabasi_100nodes_network.node[23].core_layer 	slots_sent[face$o[5]->node[51]] 	8099400
scalar barabasi_100nodes_network.node[23].core_layer 	slots_sent[face$o[6]->node[83]] 	8097100
scalar barabasi_100nodes_network.node[23].core_layer 	slots_sent[face$o[7]->node[86]] 	8101500
scalar barabasi_100nodes_network.node[23].content_store 	p_hit[23] 	0.070451298730002
scalar barabasi_100nodes_network.node[23].content_store 	hits[23] 	135472
scalar barabasi_100nodes_network.node[23].content_store 	misses[23] 	1787445
scalar barabasi_100nodes_network.node[23].content_store 	decision_yes[23] 	1787445
scalar barabasi_100nodes_network.node[23].content_store 	decision_no[23] 	0
scalar barabasi_100nodes_network.node[23].content_store 	decision_ratio[23] 	1
scalar barabasi_100nodes_network.node[24].core_layer 	interests[24] 	180183
scalar barabasi_100nodes_network.node[24].core_layer 	data[24] 	80756
scalar barabasi_100nodes_network.node[24].core_layer 	slots_sent[face$o[1]->client[24]] 	18018300
scalar barabasi_100nodes_network.node[24].core_layer 	slots_sent[face$o[2]->node[21]] 	0
scalar barabasi_100nodes_network.node[24].content_store 	p_hit[24] 	0.5518112141545
scalar barabasi_100nodes_network.node[24].content_store 	hits[24] 	99427
scalar barabasi_100nodes_network.node[24].content_store 	misses[24] 	80756
scalar barabasi_100nodes_network.node[24].content_store 	decision_yes[24] 	80756
scalar barabasi_100nodes_network.node[24].content_store 	decision_no[24] 	0
scalar barabasi_100nodes_network.node[24].content_store 	decision_ratio[24] 	1
scalar barabasi_100nodes_network.node[25].core_layer 	interests[25] 	261625
scalar barabasi_100nodes_network.node[25].core_layer 	data[25] 	156665
scalar barabasi_100nodes_network.node[25].core_layer 	slots_sent[face$o[1]->client[25]] 	18055700
scalar barabasi_100nodes_network.node[25].core_layer 	slots_sent[face$o[2]->node[2]] 	0
scalar barabasi_100nodes_network.node[25].core_layer 	slots_sent[face$o[3]->node[38]] 	8106800
scalar barabasi_100nodes_network.node[25].content_store 	p_hit[25] 	0.40118490205447
scalar barabasi_100nodes_network.node[25].content_store 	hits[25] 	104960
scalar barabasi_100nodes_network.node[25].content_store 	misses[25] 	156665
scalar barabasi_100nodes_network.node[25].content_store 	decision_yes[25] 	156665
scalar barabasi_100nodes_network.node[25].content_store 	decision_no[25] 	0
scalar barabasi_100nodes_network.node[25].content_store 	decision_ratio[25] 	1
scalar barabasi_100nodes_network.node[26].core_layer 	interests[26] 	416936
scalar barabasi_100nodes_network.node[26].core_layer 	data[26] 	301284
scalar barabasi_100nodes_network.node[26].core_layer 	slots_sent[face$o[1]->client[26]] 	17945400
scalar barabasi_100nodes_network.node[26].core_layer 	slots_sent[face$o[2]->node[2]] 	0
scalar barabasi_100nodes_network.node[26].core_layer 	slots_sent[face$o[3]->node[77]] 	15633900
scalar barabasi_100nodes_network.node[26].core_layer 	slots_sent[face$o[4]->node[91]] 	8114300
scalar barabasi_100nodes_network.node[26].content_store 	p_hit[26] 	0.27738549801408
scalar barabasi_100nodes_network.node[26].content_store 	hits[26] 	115652
scalar barabasi_100nodes_network.node[26].content_store 	misses[26] 	301284
scalar barabasi_100nodes_network.node[26].content_store 	decision_yes[26] 	301284
scalar barabasi_100nodes_network.node[26].content_store 	decision_no[26] 	0
scalar barabasi_100nodes_network.node[26].content_store 	decision_ratio[26] 	1
scalar barabasi_100nodes_network.node[27].core_layer 	interests[27] 	261574
scalar barabasi_100nodes_network.node[27].core_layer 	data[27] 	157024
scalar barabasi_100nodes_network.node[27].core_layer 	slots_sent[face$o[1]->client[27]] 	18000800
scalar barabasi_100nodes_network.node[27].core_layer 	slots_sent[face$o[2]->node[4]] 	0
scalar barabasi_100nodes_network.node[27].core_layer 	slots_sent[face$o[3]->node[99]] 	8156600
scalar barabasi_100nodes_network.node[27].content_store 	p_hit[27] 	0.3996956884094
scalar barabasi_100nodes_network.node[27].content_store 	hits[27] 	104550
scalar barabasi_100nodes_network.node[27].content_store 	misses[27] 	157024
scalar barabasi_100nodes_network.node[27].content_store 	decision_yes[27] 	157024
scalar barabasi_100nodes_network.node[27].content_store 	decision_no[27] 	0
scalar barabasi_100nodes_network.node[27].content_store 	decision_ratio[27] 	1
scalar barabasi_100nodes_network.node[28].core_layer 	interests[28] 	180274
scalar barabasi_100nodes_network.node[28].core_layer 	data[28] 	81132
scalar barabasi_100nodes_network.node[28].core_layer 	slots_sent[face$o[1]->client[28]] 	18027400
scalar barabasi_100nodes_network.node[28].core_layer 	slots_sent[face$o[2]->node[0]] 	0
scalar barabasi_100nodes_network.node[28].content_store 	p_hit[28] 	0.54995174012891
scalar barabasi_100nodes_network.node[28].content_store 	hits[28] 	99142
scalar barabasi_100nodes_network.node[28].content_store 	misses[28] 	81132
scalar barabasi_100nodes_network.node[28].content_store 	decision_yes[28] 	81132
scalar barabasi_100nodes_network.node[28].content_store 	decision_no[28] 	0
scalar barabasi_100nodes_network.node[28].content_store 	decision_ratio[28] 	1
scalar barabasi_100nodes_network.node[29].core_layer 	interests[29] 	180038
scalar barabasi_100nodes_network.node[29].core_layer 	data[29] 	81233
scalar barabasi_100nodes_network.node[29].core_layer 	slots_sent[face$o[1]->client[29]] 	18003800
scalar barabasi_100nodes_network.node[29].core_layer 	slots_sent[face$o[2]->node[2]] 	0
scalar barabasi_100nodes_network.node[29].content_store 	p_hit[29] 	0.54880080871816
scalar barabasi_100nodes_network.node[29].content_store 	hits[29] 	98805
scalar barabasi_100nodes_network.node[29].content_store 	misses[29] 	81233
scalar barabasi_100nodes_network.node[29].content_store 	decision_yes[29] 	81233
scalar barabasi_100nodes_network.node[29].content_store 	decision_no[29] 	0
scalar barabasi_100nodes_network.node[29].content_store 	decision_ratio[29] 	1
scalar barabasi_100nodes_network.node[30].core_layer 	interests[30] 	261269
scalar barabasi_100nodes_network.node[30].core_layer 	data[30] 	156785
scalar barabasi_100nodes_network.node[30].core_layer 	slots_sent[face$o[1]->client[30]] 	18036900
scalar barabasi_100nodes_network.node[30].core_layer 	slots_sent[face$o[2]->node[4]] 	0
scalar barabasi_100nodes_network.node[30].core_layer 	slots_sent[face$o[3]->node[88]] 	8090000
scalar barabasi_100nodes_network.node[30].content_store 	p_hit[30] 	0.39990967164111
scalar barabasi_100nodes_network.node[30].content_store 	hits[30] 	104484
scalar barabasi_100nodes_network.node[30].content_store 	misses[30] 	156785
scalar barabasi_100nodes_network.node[30].content_store 	decision_yes[30] 	156785
scalar barabasi_100nodes_network.node[30].content_store 	decision_no[30] 	0
scalar barabasi_100nodes_network.node[30].content_store 	decision_ratio[30] 	1
scalar barabasi_100nodes_network.node[31].core_layer 	interests[31] 	389115
scalar barabasi_100nodes_network.node[31].core_layer 	data[31] 	283066
scalar barabasi_100nodes_network.node[31].core_layer 	slots_sent[face$o[1]->client[31]] 	17974600
scalar barabasi_100nodes_network.node[31].core_layer 	slots_sent[face$o[2]->node[7]] 	0
scalar barabasi_100nodes_network.node[31].core_layer 	slots_sent[face$o[3]->node[65]] 	20936900
scalar barabasi_100nodes_network.node[31].content_store 	p_hit[31] 	0.2725389666294
scalar barabasi_100nodes_network.node[31].content_store 	hits[31] 	106049
scalar barabasi_100nodes_network.node[31].content_store 	misses[31] 	283066
scalar barabasi_100nodes_network.node[31].content_store 	decision_yes[31] 	283066
scalar barabasi_100nodes_network.node[31].content_store 	decision_no[31] 	0
scalar barabasi_100nodes_network.node[31].content_store 	decision_ratio[31] 	1
scalar barabasi_100nodes_network.node[32].core_layer 	interests[32] 	341724
scalar barabasi_100nodes_network.node[32].core_layer 	data[32] 	229571
scalar barabasi_100nodes_network.node[32].core_layer 	slots_sent[face$o[1]->client[32]] 	18058300
scalar barabasi_100nodes_network.node[32].core_layer 	slots_sent[face$o[2]->node[2]] 	0
scalar barabasi_100nodes_network.node[32].core_layer 	slots_sent[face$o[3]->node[43]] 	8045000
scalar barabasi_100nodes_network.node[32].core_layer 	slots_sent[face$o[4]->node[64]] 	8069100
scalar barabasi_100nodes_network.node[32].content_store 	p_hit[32] 	0.32819760976695
scalar barabasi_100nodes_network.node[32].content_store 	hits[32] 	112153
scalar barabasi_100nodes_network.node[32].content_store 	misses[32] 	229571
scalar barabasi_100nodes_network.node[32].content_store 	decision_yes[32] 	229571
scalar barabasi_100nodes_network.node[32].content_store 	decision_no[32] 	0
scalar barabasi_100nodes_network.node[32].content_store 	decision_ratio[32] 	1
scalar barabasi_100nodes_network.node[33].core_layer 	interests[33] 	179533
scalar barabasi_100nodes_network.node[33].core_layer 	data[33] 	80571
scalar barabasi_100nodes_network.node[33].core_layer 	slots_sent[face$o[1]->client[33]] 	17953300
scalar barabasi_100nodes_network.node[33].core_layer 	slots_sent[face$o[2]->node[2]] 	0
scalar barabasi_100nodes_network.node[33].content_store 	p_hit[33] 	0.55121899595061
scalar barabasi_100nodes_network.node[33].content_store 	hits[33] 	98962
scalar barabasi_100nodes_network.node[33].content_store 	misses[33] 	80571
scalar barabasi_100nodes_network.node[33].content_store 	decision_yes[33] 	80571
scalar barabasi_100nodes_network.node[33].content_store 	decision_no[33] 	0
scalar barabasi_100nodes_network.node[33].content_store 	decision_ratio[33] 	1
scalar barabasi_100nodes_network.node[34].core_layer 	interests[34] 	179229
scalar barabasi_100nodes_network.node[34].core_layer 	data[34] 	80583
scalar barabasi_100nodes_network.node[34].core_layer 	slots_sent[face$o[1]->client[34]] 	17922900
scalar barabasi_100nodes_network.node[34].core_layer 	slots_sent[face$o[2]->node[2]] 	0
scalar barabasi_100nodes_network.node[34].content_store 	p_hit[34] 	0.55039084076796
scalar barabasi_100nodes_network.node[34].content_store 	hits[34] 	98646
scalar barabasi_100nodes_network.node[34].content_store 	misses[34] 	80583
scalar barabasi_100nodes_network.node[34].content_store 	decision_yes[34] 	80583
scalar barabasi_100nodes_network.node[34].content_store 	decision_no[34] 	0
scalar barabasi_100nodes_network.node[34].content_store 	decision_ratio[34] 	1
scalar barabasi_100nodes_network.node[35].core_layer 	interests[35] 	261464
scalar barabasi_100nodes_network.node[35].core_layer 	data[35] 	156661
scalar barabasi_100nodes_network.node[35].core_layer 	slots_sent[face$o[1]->client[35]] 	18019900
scalar barabasi_100nodes_network.node[35].core_layer 	slots_sent[face$o[2]->node[5]] 	0
scalar barabasi_100nodes_network.node[35].core_layer 	slots_sent[face$o[3]->node[50]] 	8126500
scalar barabasi_100nodes_network.node[35].content_store 	p_hit[35] 	0.40083147201909
scalar barabasi_100nodes_network.node[35].content_store 	hits[35] 	104803
scalar barabasi_100nodes_network.node[35].content_store 	misses[35] 	156661
scalar barabasi_100nodes_network.node[35].content_store 	decision_yes[35] 	156661
scalar barabasi_100nodes_network.node[35].content_store 	decision_no[35] 	0
scalar barabasi_100nodes_network.node[35].content_store 	decision_ratio[35] 	1
scalar barabasi_100nodes_network.node[36].core_layer 	interests[36] 	260504
scalar barabasi_100nodes_network.node[36].core_layer 	data[36] 	156093
scalar barabasi_100nodes_network.node[36].core_layer 	slots_sent[face$o[1]->client[36]] 	17989400
scalar barabasi_100nodes_network.node[36].core_layer 	slots_sent[face$o[2]->node[2]] 	0
scalar barabasi_100nodes_network.node[36].core_layer 	slots_sent[face$o[3]->node[75]] 	8061000
scalar barabasi_100nodes_network.node[36].content_store 	p_hit[36] 	0.40080382642877
scalar barabasi_100nodes_network.node[36].content_store 	hits[36] 	104411
scalar barabasi_100nodes_network.node[36].content_store 	misses[36] 	156093
scalar barabasi_100nodes_network.node[36].content_store 	decision_yes[36] 	156093
scalar barabasi_100nodes_network.node[36].content_store 	decision_no[36] 	0
scalar barabasi_100nodes_network.node[36].content_store 	decision_ratio[36] 	1
scalar barabasi_100nodes_network.node[37].core_layer 	interests[37] 	179541
scalar barabasi_100nodes_network.node[37].core_layer 	data[37] 	80533
scalar barabasi_100nodes_network.node[37].core_layer 	slots_sent[face$o[1]->client[37]] 	17954100
scalar barabasi_100nodes_network.node[37].core_layer 	slots_sent[face$o[2]->node[0]] 	0
scalar barabasi_100nodes_network.node[37].content_store 	p_hit[37] 	0.55145064358559
scalar barabasi_100nodes_network.node[37].content_store 	hits[37] 	99008
scalar barabasi_100nodes_network.node[37].content_store 	misses[37] 	80533
scalar barabasi_100nodes_network.node[37].content_store 	decision_yes[37] 	80533
scalar barabasi_100nodes_network.node[37].content_store 	decision_no[37] 	0
scalar barabasi_100nodes_network.node[37].content_store 	decision_ratio[37] 	1
scalar barabasi_100nodes_network.node[38].core_layer 	interests[38] 	180063
scalar barabasi_100nodes_network.node[38].core_layer 	data[38] 	81068
scalar barabasi_100nodes_network.node[38].core_layer 	slots_sent[face$o[1]->client[38]] 	18006300
scalar barabasi_100nodes_network.node[38].core_layer 	slots_sent[face$o[2]->node[25]] 	0
scalar barabasi_100nodes_network.node[38].content_store 	p_hit[38] 	0.54977979929247
scalar barabasi_100nodes_network.node[38].content_store 	hits[38] 	98995
scalar barabasi_100nodes_network.node[38].content_store 	misses[38] 	81068
scalar barabasi_100nodes_network.node[38].content_store 	decision_yes[38] 	81068
scalar barabasi_100nodes_network.node[38].content_store 	decision_no[38] 	0
scalar barabasi_100nodes_network.node[38].content_store 	decision_ratio[38] 	1
scalar barabasi_100nodes_network.node[39].core_layer 	interests[39] 	260435
scalar barabasi_100nodes_network.node[39].core_layer 	data[39] 	155684
scalar barabasi_100nodes_network.node[39].core_layer 	slots_sent[face$o[1]->client[39]] 	17972500
scalar barabasi_100nodes_network.node[39].core_layer 	slots_sent[face$o[2]->node[8]] 	0
scalar barabasi_100nodes_network.node[39].core_layer 	slots_sent[face$o[3]->node[60]] 	8071000
scalar barabasi_100nodes_network.node[39].content_store 	p_hit[39] 	0.40221552402711
scalar barabasi_100nodes_network.node[39].content_store 	hits[39] 	104751
scalar barabasi_100nodes_network.node[39].content_store 	misses[39] 	155684
scalar barabasi_100nodes_network.node[39].content_store 	decision_yes[39] 	155684
scalar barabasi_100nodes_network.node[39].content_store 	decision_no[39] 	0
scalar barabasi_100nodes_network.node[39].content_store 	decision_ratio[39] 	1
scalar barabasi_100nodes_network.node[40].core_layer 	interests[40] 	179834
scalar barabasi_100nodes_network.node[40].core_layer 	data[40] 	80973
scalar barabasi_100nodes_network.node[40].core_layer 	slots_sent[face$o[1]->client[40]] 	17983400
scalar barabasi_100nodes_network.node[40].core_layer 	slots_sent[face$o[2]->node[15]] 	0
scalar barabasi_100nodes_network.node[40].content_store 	p_hit[40] 	0.54973475538552
scalar barabasi_100nodes_network.node[40].content_store 	hits[40] 	98861
scalar barabasi_100nodes_network.node[40].content_store 	misses[40] 	80973
scalar barabasi_100nodes_network.node[40].content_store 	decision_yes[40] 	80973
scalar barabasi_100nodes_network.node[40].content_store 	decision_no[40] 	0
scalar barabasi_100nodes_network.node[40].content_store 	decision_ratio[40] 	1
scalar barabasi_100nodes_network.node[41].core_layer 	interests[41] 	3593149
scalar barabasi_100nodes_network.node[41].core_layer 	data[41] 	3294683
scalar barabasi_100nodes_network.node[41].core_layer 	slots_sent[face$o[1]->client[41]] 	18006100
scalar barabasi_100nodes_network.node[41].core_layer 	slots_sent[face$o[2]->node[2]] 	297880800
scalar barabasi_100nodes_network.node[41].core_layer 	slots_sent[face$o[3]->node[42]] 	8118400
scalar barabasi_100nodes_network.node[41].core_layer 	slots_sent[face$o[4]->node[48]] 	8101500
scalar barabasi_100nodes_network.node[41].core_layer 	slots_sent[face$o[5]->node[54]] 	15642400
scalar barabasi_100nodes_network.node[41].core_layer 	slots_sent[face$o[6]->node[55]] 	5784400
scalar barabasi_100nodes_network.node[41].core_layer 	slots_sent[face$o[7]->node[69]] 	5781300
scalar barabasi_100nodes_network.node[41].content_store 	p_hit[41] 	0.083065300103057
scalar barabasi_100nodes_network.node[41].content_store 	hits[41] 	298466
scalar barabasi_100nodes_network.node[41].content_store 	misses[41] 	3294683
scalar barabasi_100nodes_network.node[41].content_store 	decision_yes[41] 	3294683
scalar barabasi_100nodes_network.node[41].content_store 	decision_no[41] 	0
scalar barabasi_100nodes_network.node[41].content_store 	decision_ratio[41] 	1
scalar barabasi_100nodes_network.node[42].core_layer 	interests[42] 	179962
scalar barabasi_100nodes_network.node[42].core_layer 	data[42] 	81184
scalar barabasi_100nodes_network.node[42].core_layer 	slots_sent[face$o[1]->client[42]] 	17996200
scalar barabasi_100nodes_network.node[42].core_layer 	slots_sent[face$o[2]->node[41]] 	0
scalar barabasi_100nodes_network.node[42].content_store 	p_hit[42] 	0.54888254186995
scalar barabasi_100nodes_network.node[42].content_store 	hits[42] 	98778
scalar barabasi_100nodes_network.node[42].content_store 	misses[42] 	81184
scalar barabasi_100nodes_network.node[42].content_store 	decision_yes[42] 	81184
scalar barabasi_100nodes_network.node[42].content_store 	decision_no[42] 	0
scalar barabasi_100nodes_network.node[42].content_store 	decision_ratio[42] 	1
scalar barabasi_100nodes_network.node[43].core_layer 	interests[43] 	179851
scalar barabasi_100nodes_network.node[43].core_layer 	data[43] 	80450
scalar barabasi_100nodes_network.node[43].core_layer 	slots_sent[face$o[1]->client[43]] 	17985100
scalar barabasi_100nodes_network.node[43].core_layer 	slots_sent[face$o[2]->node[32]] 	0
scalar barabasi_100nodes_network.node[43].content_store 	p_hit[43] 	0.55268527836932
scalar barabasi_100nodes_network.node[43].content_store 	hits[43] 	99401
scalar barabasi_100nodes_network.node[43].content_store 	misses[43] 	80450
scalar barabasi_100nodes_network.node[43].content_store 	decision_yes[43] 	80450
scalar barabasi_100nodes_network.node[43].content_store 	decision_no[43] 	0
scalar barabasi_100nodes_network.node[43].content_store 	decision_ratio[43] 	1
scalar barabasi_100nodes_network.node[44].core_layer 	interests[44] 	180649
scalar barabasi_100nodes_network.node[44].core_layer 	data[44] 	81085
scalar barabasi_100nodes_network.node[44].core_layer 	slots_sent[face$o[1]->client[44]] 	18064900
scalar barabasi_100nodes_network.node[44].core_layer 	slots_sent[face$o[2]->node[0]] 	0
scalar barabasi_100nodes_network.node[44].content_store 	p_hit[44] 	0.55114614528727
scalar barabasi_100nodes_network.node[44].content_store 	hits[44] 	99564
scalar barabasi_100nodes_network.node[44].content_store 	misses[44] 	81085
scalar barabasi_100nodes_network.node[44].content_store 	decision_yes[44] 	81085
scalar barabasi_100nodes_network.node[44].content_store 	decision_no[44] 	0
scalar barabasi_100nodes_network.node[44].content_store 	decision_ratio[44] 	1
scalar barabasi_100nodes_network.node[45].core_layer 	interests[45] 	179865
scalar barabasi_100nodes_network.node[45].core_layer 	data[45] 	80781
scalar barabasi_100nodes_network.node[45].core_layer 	slots_sent[face$o[1]->client[45]] 	17986500
scalar barabasi_100nodes_network.node[45].core_layer 	slots_sent[face$o[2]->node[2]] 	0
scalar barabasi_100nodes_network.node[45].content_store 	p_hit[45] 	0.55087982653657
scalar barabasi_100nodes_network.node[45].content_store 	hits[45] 	99084
scalar barabasi_100nodes_network.node[45].content_store 	misses[45] 	80781
scalar barabasi_100nodes_network.node[45].content_store 	decision_yes[45] 	80781
scalar barabasi_100nodes_network.node[45].content_store 	decision_no[45] 	0
scalar barabasi_100nodes_network.node[45].content_store 	decision_ratio[45] 	1
scalar barabasi_100nodes_network.node[46].core_layer 	interests[46] 	1645077
scalar barabasi_100nodes_network.node[46].core_layer 	repo_load[46] 	1456601
scalar barabasi_100nodes_network.node[46].core_layer 	data[46] 	112031
scalar barabasi_100nodes_network.node[46].core_layer 	slots_sent[face$o[1]->client[46]] 	17975700
scalar barabasi_100nodes_network.node[46].core_layer 	slots_sent[face$o[2]->node[23]] 	138449000
scalar barabasi_100nodes_network.node[46].core_layer 	slots_sent[face$o[3]->node[82]] 	8083000
scalar barabasi_100nodes_network.node[46].content_store 	p_hit[46] 	0.046468949477745
scalar barabasi_100nodes_network.node[46].content_store 	hits[46] 	76445
scalar barabasi_100nodes_network.node[46].content_store 	misses[46] 	1568632
scalar barabasi_100nodes_network.node[46].content_store 	decision_yes[46] 	112031
scalar barabasi_100nodes_network.node[46].content_store 	decision_no[46] 	1456601
scalar barabasi_100nodes_network.node[46].content_store 	decision_ratio[46] 	0.071419555383289
scalar barabasi_100nodes_network.node[47].core_layer 	interests[47] 	180348
scalar barabasi_100nodes_network.node[47].core_layer 	repo_load[47] 	34353
scalar barabasi_100nodes_network.node[47].core_layer 	data[47] 	57541
scalar barabasi_100nodes_network.node[47].core_layer 	slots_sent[face$o[1]->client[47]] 	18034800
scalar barabasi_100nodes_network.node[47].core_layer 	slots_sent[face$o[2]->node[23]] 	0
scalar barabasi_100nodes_network.node[47].content_store 	p_hit[47] 	0.49046288287089
scalar barabasi_100nodes_network.node[47].content_store 	hits[47] 	88454
scalar barabasi_100nodes_network.node[47].content_store 	misses[47] 	91894
scalar barabasi_100nodes_network.node[47].content_store 	decision_yes[47] 	57541
scalar barabasi_100nodes_network.node[47].content_store 	decision_no[47] 	34353
scalar barabasi_100nodes_network.node[47].content_store 	decision_ratio[47] 	0.62616710557817
scalar barabasi_100nodes_network.node[48].core_layer 	interests[48] 	179785
scalar barabasi_100nodes_network.node[48].core_layer 	data[48] 	81015
scalar barabasi_100nodes_network.node[48].core_layer 	slots_sent[face$o[1]->client[48]] 	17978500
scalar barabasi_100nodes_network.node[48].core_layer 	slots_sent[face$o[2]->node[41]] 	0
scalar barabasi_100nodes_network.node[48].content_store 	p_hit[48] 	0.54937842422894
scalar barabasi_100nodes_network.node[48].content_store 	hits[48] 	98770
scalar barabasi_100nodes_network.node[48].content_store 	misses[48] 	81015
scalar barabasi_100nodes_network.node[48].content_store 	decision_yes[48] 	81015
scalar barabasi_100nodes_network.node[48].content_store 	decision_no[48] 	0
scalar barabasi_100nodes_network.node[48].content_store 	decision_ratio[48] 	1
scalar barabasi_100nodes_network.node[49].core_layer 	interests[49] 	178983
scalar barabasi_100nodes_network.node[49].core_layer 	data[49] 	80458
scalar barabasi_100nodes_network.node[49].core_layer 	slots_sent[face$o[1]->client[49]] 	17898300
scalar barabasi_100nodes_network.node[49].core_layer 	slots_sent[face$o[2]->node[7]] 	0
scalar barabasi_100nodes_network.node[49].content_store 	p_hit[49] 	0.55047127380813
scalar barabasi_100nodes_network.node[49].content_store 	hits[49] 	98525
scalar barabasi_100nodes_network.node[49].content_store 	misses[49] 	80458
scalar barabasi_100nodes_network.node[49].content_store 	decision_yes[49] 	80458
scalar barabasi_100nodes_network.node[49].content_store 	decision_no[49] 	0
scalar barabasi_100nodes_network.node[49].content_store 	decision_ratio[49] 	1
scalar barabasi_100nodes_network.node[50].core_layer 	interests[50] 	180200
scalar barabasi_100nodes_network.node[50].core_layer 	data[50] 	81265
scalar barabasi_100nodes_network.node[50].core_layer 	slots_sent[face$o[1]->client[50]] 	18020000
scalar barabasi_100nodes_network.node[50].core_layer 	slots_sent[face$o[2]->node[35]] 	0
scalar barabasi_100nodes_network.node[50].content_store 	p_hit[50] 	0.54902885682575
scalar barabasi_100nodes_network.node[50].content_store 	hits[50] 	98935
[...]
scalar barabasi_100nodes_network.client[8] 	avg_time[8].real 	0
scalar barabasi_100nodes_network.client[9] 	hdistance[9].real 	2.1488476934437
scalar barabasi_100nodes_network.client[9] 	downloads[9].real 	180117
scalar barabasi_100nodes_network.client[9] 	avg_time[9].real 	0
scalar barabasi_100nodes_network.client[10] 	hdistance[10].real 	1.5097742527283
scalar barabasi_100nodes_network.client[10] 	downloads[10].real 	180423
scalar barabasi_100nodes_network.client[10] 	avg_time[10].real 	0
scalar barabasi_100nodes_network.client[11] 	hdistance[11].real 	1.7782611583422
scalar barabasi_100nodes_network.client[11] 	downloads[11].real 	180672
scalar barabasi_100nodes_network.client[11] 	avg_time[11].real 	0
scalar barabasi_100nodes_network.client[12] 	hdistance[12].real 	1.967294559432
scalar barabasi_100nodes_network.client[12] 	downloads[12].real 	180551
scalar barabasi_100nodes_network.client[12] 	avg_time[12].real 	0
scalar barabasi_100nodes_network.client[13] 	hdistance[13].real 	1.4991006543227
scalar barabasi_100nodes_network.client[13] 	downloads[13].real 	179575
scalar barabasi_100nodes_network.client[13] 	avg_time[13].real 	0
scalar barabasi_100nodes_network.client[14] 	hdistance[14].real 	1.6552062378427
scalar barabasi_100nodes_network.client[14] 	downloads[14].real 	180447
scalar barabasi_100nodes_network.client[14] 	avg_time[14].real 	0
scalar barabasi_100nodes_network.client[15] 	hdistance[15].real 	1.5554880070742
scalar barabasi_100nodes_network.client[15] 	downloads[15].real 	180940
scalar barabasi_100nodes_network.client[15] 	avg_time[15].real 	0
scalar barabasi_100nodes_network.client[16] 	hdistance[16].real 	1.7839796906838
scalar barabasi_100nodes_network.client[16] 	downloads[16].real 	179622
scalar barabasi_100nodes_network.client[16] 	avg_time[16].real 	0
scalar barabasi_100nodes_network.client[17] 	hdistance[17].real 	1.6627983456518
scalar barabasi_100nodes_network.client[17] 	downloads[17].real 	179406
scalar barabasi_100nodes_network.client[17] 	avg_time[17].real 	0
scalar barabasi_100nodes_network.client[18] 	hdistance[18].real 	1.7439580015206
scalar barabasi_100nodes_network.client[18] 	downloads[18].real 	180197
scalar barabasi_100nodes_network.client[18] 	avg_time[18].real 	0
scalar barabasi_100nodes_network.client[19] 	hdistance[19].real 	2.1310513691232
scalar barabasi_100nodes_network.client[19] 	downloads[19].real 	180517
scalar barabasi_100nodes_network.client[19] 	avg_time[19].real 	0
scalar barabasi_100nodes_network.client[20] 	hdistance[20].real 	1.9651040595166
scalar barabasi_100nodes_network.client[20] 	downloads[20].real 	179849
scalar barabasi_100nodes_network.client[20] 	avg_time[20].real 	0
scalar barabasi_100nodes_network.client[21] 	hdistance[21].real 	1.9208857238233
scalar barabasi_100nodes_network.client[21] 	downloads[21].real 	179740
scalar barabasi_100nodes_network.client[21] 	avg_time[21].real 	0
scalar barabasi_100nodes_network.client[22] 	hdistance[22].real 	1.8394052995751
scalar barabasi_100nodes_network.client[22] 	downloads[22].real 	179788
scalar barabasi_100nodes_network.client[22] 	avg_time[22].real 	0
scalar barabasi_100nodes_network.client[23] 	hdistance[23].real 	1.7711665137997
scalar barabasi_100nodes_network.client[23] 	downloads[23].real 	179895
scalar barabasi_100nodes_network.client[23] 	avg_time[23].real 	0
scalar barabasi_100nodes_network.client[24] 	hdistance[24].real 	2.1345465443466
scalar barabasi_100nodes_network.client[24] 	downloads[24].real 	180183
scalar barabasi_100nodes_network.client[24] 	avg_time[24].real 	0
scalar barabasi_100nodes_network.client[25] 	hdistance[25].real 	1.6912166241132
scalar barabasi_100nodes_network.client[25] 	downloads[25].real 	180557
scalar barabasi_100nodes_network.client[25] 	avg_time[25].real 	0
scalar barabasi_100nodes_network.client[26] 	hdistance[26].real 	1.7423685178374
scalar barabasi_100nodes_network.client[26] 	downloads[26].real 	179454
scalar barabasi_100nodes_network.client[26] 	avg_time[26].real 	0
scalar barabasi_100nodes_network.client[27] 	hdistance[27].real 	2.0182103017643
scalar barabasi_100nodes_network.client[27] 	downloads[27].real 	180008
scalar barabasi_100nodes_network.client[27] 	avg_time[27].real 	0
scalar barabasi_100nodes_network.client[28] 	hdistance[28].real 	1.8385291278831
scalar barabasi_100nodes_network.client[28] 	downloads[28].real 	180274
scalar barabasi_100nodes_network.client[28] 	avg_time[28].real 	0
scalar barabasi_100nodes_network.client[29] 	hdistance[29].real 	1.6559726280008
scalar barabasi_100nodes_network.client[29] 	downloads[29].real 	180038
scalar barabasi_100nodes_network.client[29] 	avg_time[29].real 	0
scalar barabasi_100nodes_network.client[30] 	hdistance[30].real 	2.0210900986311
scalar barabasi_100nodes_network.client[30] 	downloads[30].real 	180369
scalar barabasi_100nodes_network.client[30] 	avg_time[30].real 	0
scalar barabasi_100nodes_network.client[31] 	hdistance[31].real 	1.6630189267077
scalar barabasi_100nodes_network.client[31] 	downloads[31].real 	179746
scalar barabasi_100nodes_network.client[31] 	avg_time[31].real 	0
scalar barabasi_100nodes_network.client[32] 	hdistance[32].real 	1.7302126999773
scalar barabasi_100nodes_network.client[32] 	downloads[32].real 	180583
scalar barabasi_100nodes_network.client[32] 	avg_time[32].real 	0
scalar barabasi_100nodes_network.client[33] 	hdistance[33].real 	1.6475745406137
scalar barabasi_100nodes_network.client[33] 	downloads[33].real 	179533
scalar barabasi_100nodes_network.client[33] 	avg_time[33].real 	0
scalar barabasi_100nodes_network.client[34] 	hdistance[34].real 	1.6527403489391
scalar barabasi_100nodes_network.client[34] 	downloads[34].real 	179229
scalar barabasi_100nodes_network.client[34] 	avg_time[34].real 	0
scalar barabasi_100nodes_network.client[35] 	hdistance[35].real 	2.2007391827924
scalar barabasi_100nodes_network.client[35] 	downloads[35].real 	180199
scalar barabasi_100nodes_network.client[35] 	avg_time[35].real 	0
scalar barabasi_100nodes_network.client[36] 	hdistance[36].real 	1.6956318721025
scalar barabasi_100nodes_network.client[36] 	downloads[36].real 	179894
scalar barabasi_100nodes_network.client[36] 	avg_time[36].real 	0
scalar barabasi_100nodes_network.client[37] 	hdistance[37].real 	1.8355863006221
scalar barabasi_100nodes_network.client[37] 	downloads[37].real 	179541
scalar barabasi_100nodes_network.client[37] 	avg_time[37].real 	0
scalar barabasi_100nodes_network.client[38] 	hdistance[38].real 	1.9771302266429
scalar barabasi_100nodes_network.client[38] 	downloads[38].real 	180063
scalar barabasi_100nodes_network.client[38] 	avg_time[38].real 	0
scalar barabasi_100nodes_network.client[39] 	hdistance[39].real 	2.0042676311031
scalar barabasi_100nodes_network.client[39] 	downloads[39].real 	179725
scalar barabasi_100nodes_network.client[39] 	avg_time[39].real 	0
scalar barabasi_100nodes_network.client[40] 	hdistance[40].real 	1.7081808779207
scalar barabasi_100nodes_network.client[40] 	downloads[40].real 	179834
scalar barabasi_100nodes_network.client[40] 	avg_time[40].real 	0
scalar barabasi_100nodes_network.client[41] 	hdistance[41].real 	1.6506184015417
scalar barabasi_100nodes_network.client[41] 	downloads[41].real 	180061
scalar barabasi_100nodes_network.client[41] 	avg_time[41].real 	0
scalar barabasi_100nodes_network.client[42] 	hdistance[42].real 	1.6758315644414
scalar barabasi_100nodes_network.client[42] 	downloads[42].real 	179962
scalar barabasi_100nodes_network.client[42] 	avg_time[42].real 	0
scalar barabasi_100nodes_network.client[43] 	hdistance[43].real 	1.9531223067984
scalar barabasi_100nodes_network.client[43] 	downloads[43].real 	179851
scalar barabasi_100nodes_network.client[43] 	avg_time[43].real 	0
scalar barabasi_100nodes_network.client[44] 	hdistance[44].real 	1.8343860192971
scalar barabasi_100nodes_network.client[44] 	downloads[44].real 	180649
scalar barabasi_100nodes_network.client[44] 	avg_time[44].real 	0
scalar barabasi_100nodes_network.client[45] 	hdistance[45].real 	1.6462068773802
scalar barabasi_100nodes_network.client[45] 	downloads[45].real 	179865
scalar barabasi_100nodes_network.client[45] 	avg_time[45].real 	0
scalar barabasi_100nodes_network.client[46] 	hdistance[46].real 	1.7734775279961
scalar barabasi_100nodes_network.client[46] 	downloads[46].real 	179757
scalar barabasi_100nodes_network.client[46] 	avg_time[46].real 	0
scalar barabasi_100nodes_network.client[47] 	hdistance[47].real 	1.3404972608512
scalar barabasi_100nodes_network.client[47] 	downloads[47].real 	180348
scalar barabasi_100nodes_network.client[47] 	avg_time[47].real 	0
scalar barabasi_100nodes_network.client[48] 	hdistance[48].real 	1.6784770698334
scalar barabasi_100nodes_network.client[48] 	downloads[48].real 	179785
scalar barabasi_100nodes_network.client[48] 	avg_time[48].real 	0
scalar barabasi_100nodes_network.client[49] 	hdistance[49].real 	1.5710877569378
scalar barabasi_100nodes_network.client[49] 	downloads[49].real 	178983
scalar barabasi_100nodes_network.client[49] 	avg_time[49].real 	0
scalar barabasi_100nodes_network.client[50] 	hdistance[50].real 	2.4799445061043
scalar barabasi_100nodes_network.client[50] 	downloads[50].real 	180200
scalar barabasi_100nodes_network.client[50] 	avg_time[50].real 	0
scalar barabasi_100nodes_network.client[51] 	hdistance[51].real 	1.7994654926727
scalar barabasi_100nodes_network.client[51] 	downloads[51].real 	180353
scalar barabasi_100nodes_network.client[51] 	avg_time[51].real 	0
scalar barabasi_100nodes_network.client[52] 	hdistance[52].real 	1.977352767995
scalar barabasi_100nodes_network.client[52] 	downloads[52].real 	180022
scalar barabasi_100nodes_network.client[52] 	avg_time[52].real 	0
scalar barabasi_100nodes_network.client[53] 	hdistance[53].real 	1.9560920967992
scalar barabasi_100nodes_network.client[53] 	downloads[53].real 	180332
scalar barabasi_100nodes_network.client[53] 	avg_time[53].real 	0
scalar barabasi_100nodes_network.client[54] 	hdistance[54].real 	1.7174977465698
scalar barabasi_100nodes_network.client[54] 	downloads[54].real 	179726
scalar barabasi_100nodes_network.client[54] 	avg_time[54].real 	0
scalar barabasi_100nodes_network.client[55] 	hdistance[55].real 	1.5473952419199
scalar barabasi_100nodes_network.client[55] 	downloads[55].real 	180535
scalar barabasi_100nodes_network.client[55] 	avg_time[55].real 	0
scalar barabasi_100nodes_network.client[56] 	hdistance[56].real 	1.7034266944827
scalar barabasi_100nodes_network.client[56] 	downloads[56].real 	180232
scalar barabasi_100nodes_network.client[56] 	avg_time[56].real 	0
scalar barabasi_100nodes_network.client[57] 	hdistance[57].real 	2.1349185219697
scalar barabasi_100nodes_network.client[57] 	downloads[57].real 	180294
scalar barabasi_100nodes_network.client[57] 	avg_time[57].real 	0
scalar barabasi_100nodes_network.client[58] 	hdistance[58].real 	1.8828030159596
scalar barabasi_100nodes_network.client[58] 	downloads[58].real 	179578
scalar barabasi_100nodes_network.client[58] 	avg_time[58].real 	0
scalar barabasi_100nodes_network.client[59] 	hdistance[59].real 	1.650652724161
scalar barabasi_100nodes_network.client[59] 	downloads[59].real 	180551
scalar barabasi_100nodes_network.client[59] 	avg_time[59].real 	0
scalar barabasi_100nodes_network.client[60] 	hdistance[60].real 	2.2844213064567
scalar barabasi_100nodes_network.client[60] 	downloads[60].real 	179983
scalar barabasi_100nodes_network.client[60] 	avg_time[60].real 	0
scalar barabasi_100nodes_network.client[61] 	hdistance[61].real 	1.9618911826549
scalar barabasi_100nodes_network.client[61] 	downloads[61].real 	180247
scalar barabasi_100nodes_network.client[61] 	avg_time[61].real 	0
scalar barabasi_100nodes_network.client[62] 	hdistance[62].real 	1.7124348028305
scalar barabasi_100nodes_network.client[62] 	downloads[62].real 	180606
scalar barabasi_100nodes_network.client[62] 	avg_time[62].real 	0
scalar barabasi_100nodes_network.client[63] 	hdistance[63].real 	2.3125672219034
scalar barabasi_100nodes_network.client[63] 	downloads[63].real 	179443
scalar barabasi_100nodes_network.client[63] 	avg_time[63].real 	0
scalar barabasi_100nodes_network.client[64] 	hdistance[64].real 	1.9616246171633
scalar barabasi_100nodes_network.client[64] 	downloads[64].real 	179907
scalar barabasi_100nodes_network.client[64] 	avg_time[64].real 	0
scalar barabasi_100nodes_network.client[65] 	hdistance[65].real 	2.0133609166842
scalar barabasi_100nodes_network.client[65] 	downloads[65].real 	180302
scalar barabasi_100nodes_network.client[65] 	avg_time[65].real 	0
scalar barabasi_100nodes_network.client[66] 	hdistance[66].real 	1.9734999137802
scalar barabasi_100nodes_network.client[66] 	downloads[66].real 	179773
scalar barabasi_100nodes_network.client[66] 	avg_time[66].real 	0
scalar barabasi_100nodes_network.client[67] 	hdistance[67].real 	1.692458173314
scalar barabasi_100nodes_network.client[67] 	downloads[67].real 	180447
scalar barabasi_100nodes_network.client[67] 	avg_time[67].real 	0
scalar barabasi_100nodes_network.client[68] 	hdistance[68].real 	1.9542523590276
scalar barabasi_100nodes_network.client[68] 	downloads[68].real 	180053
scalar barabasi_100nodes_network.client[68] 	avg_time[68].real 	0
scalar barabasi_100nodes_network.client[69] 	hdistance[69].real 	1.5138850303926
scalar barabasi_100nodes_network.client[69] 	downloads[69].real 	179978
scalar barabasi_100nodes_network.client[69] 	avg_time[69].real 	0
scalar barabasi_100nodes_network.client[70] 	hdistance[70].real 	2.3173724091821
scalar barabasi_100nodes_network.client[70] 	downloads[70].real 	179480
scalar barabasi_100nodes_network.client[70] 	avg_time[70].real 	0
scalar barabasi_100nodes_network.client[71] 	hdistance[71].real 	1.7877619930913
scalar barabasi_100nodes_network.client[71] 	downloads[71].real 	180062
scalar barabasi_100nodes_network.client[71] 	avg_time[71].real 	0
scalar barabasi_100nodes_network.client[72] 	hdistance[72].real 	1.9632315783044
scalar barabasi_100nodes_network.client[72] 	downloads[72].real 	180073
scalar barabasi_100nodes_network.client[72] 	avg_time[72].real 	0
scalar barabasi_100nodes_network.client[73] 	hdistance[73].real 	1.8912761250996
scalar barabasi_100nodes_network.client[73] 	downloads[73].real 	179473
scalar barabasi_100nodes_network.client[73] 	avg_time[73].real 	0
scalar barabasi_100nodes_network.client[74] 	hdistance[74].real 	1.8374889801893
scalar barabasi_100nodes_network.client[74] 	downloads[74].real 	180357
scalar barabasi_100nodes_network.client[74] 	avg_time[74].real 	0
scalar barabasi_100nodes_network.client[75] 	hdistance[75].real 	1.9692006300124
scalar barabasi_100nodes_network.client[75] 	downloads[75].real 	179679
scalar barabasi_100nodes_network.client[75] 	avg_time[75].real 	0
scalar barabasi_100nodes_network.client[76] 	hdistance[76].real 	2.1487353026161
scalar barabasi_100nodes_network.client[76] 	downloads[76].real 	179964
scalar barabasi_100nodes_network.client[76] 	avg_time[76].real 	0
scalar barabasi_100nodes_network.client[77] 	hdistance[77].real 	2.0194764827993
scalar barabasi_100nodes_network.client[77] 	downloads[77].real 	180166
scalar barabasi_100nodes_network.client[77] 	avg_time[77].real 	0
scalar barabasi_100nodes_network.client[78] 	hdistance[78].real 	1.7883726991909
scalar barabasi_100nodes_network.client[78] 	downloads[78].real 	180317
scalar barabasi_100nodes_network.client[78] 	avg_time[78].real 	0
scalar barabasi_100nodes_network.client[79] 	hdistance[79].real 	1.6505189926874
scalar barabasi_100nodes_network.client[79] 	downloads[79].real 	179964
scalar barabasi_100nodes_network.client[79] 	avg_time[79].real 	0
scalar barabasi_100nodes_network.client[80] 	hdistance[80].real 	2.3011921147272
scalar barabasi_100nodes_network.client[80] 	downloads[80].real 	180184
scalar barabasi_100nodes_network.client[80] 	avg_time[80].real 	0
scalar barabasi_100nodes_network.client[81] 	hdistance[81].real 	1.6259962428999
scalar barabasi_100nodes_network.client[81] 	downloads[81].real 	179926
scalar barabasi_100nodes_network.client[81] 	avg_time[81].real 	0
scalar barabasi_100nodes_network.client[82] 	hdistance[82].real 	1.9324922260736
scalar barabasi_100nodes_network.client[82] 	downloads[82].real 	179446
scalar barabasi_100nodes_network.client[82] 	avg_time[82].real 	0
scalar barabasi_100nodes_network.client[83] 	hdistance[83].real 	1.8006373898218
scalar barabasi_100nodes_network.client[83] 	downloads[83].real 	179482
scalar barabasi_100nodes_network.client[83] 	avg_time[83].real 	0
scalar barabasi_100nodes_network.client[84] 	hdistance[84].real 	2.0347194499889
scalar barabasi_100nodes_network.client[84] 	downloads[84].real 	180360
scalar barabasi_100nodes_network.client[84] 	avg_time[84].real 	0
scalar barabasi_100nodes_network.client[85] 	hdistance[85].real 	1.9708561727436
scalar barabasi_100nodes_network.client[85] 	downloads[85].real 	180244
scalar barabasi_100nodes_network.client[85] 	avg_time[85].real 	0
scalar barabasi_100nodes_network.client[86] 	hdistance[86].real 	1.8023946770132
scalar barabasi_100nodes_network.client[86] 	downloads[86].real 	179899
scalar barabasi_100nodes_network.client[86] 	avg_time[86].real 	0
scalar barabasi_100nodes_network.client[87] 	hdistance[87].real 	2.0401260469174
scalar barabasi_100nodes_network.client[87] 	downloads[87].real 	179933
scalar barabasi_100nodes_network.client[87] 	avg_time[87].real 	0
scalar barabasi_100nodes_network.client[88] 	hdistance[88].real 	2.2908227848101
scalar barabasi_100nodes_network.client[88] 	downloads[88].real 	180120
scalar barabasi_100nodes_network.client[88] 	avg_time[88].real 	0
scalar barabasi_100nodes_network.client[89] 	hdistance[89].real 	1.9882167192953
scalar barabasi_100nodes_network.client[89] 	downloads[89].real 	180510
scalar barabasi_100nodes_network.client[89] 	avg_time[89].real 	0
scalar barabasi_100nodes_network.client[90] 	hdistance[90].real 	1.5688971347946
scalar barabasi_100nodes_network.client[90] 	downloads[90].real 	180022
scalar barabasi_100nodes_network.client[90] 	avg_time[90].real 	0
scalar barabasi_100nodes_network.client[91] 	hdistance[91].real 	1.9603490746083
scalar barabasi_100nodes_network.client[91] 	downloads[91].real 	180248
scalar barabasi_100nodes_network.client[91] 	avg_time[91].real 	0
scalar barabasi_100nodes_network.client[92] 	hdistance[92].real 	2.3276826420549
scalar barabasi_100nodes_network.client[92] 	downloads[92].real 	179860
scalar barabasi_100nodes_network.client[92] 	avg_time[92].real 	0
scalar barabasi_100nodes_network.client[93] 	hdistance[93].real 	1.8409347803088
scalar barabasi_100nodes_network.client[93] 	downloads[93].real 	179593
scalar barabasi_100nodes_network.client[93] 	avg_time[93].real 	0
scalar barabasi_100nodes_network.client[94] 	hdistance[94].real 	2.1374907547977
scalar barabasi_100nodes_network.client[94] 	downloads[94].real 	179823
scalar barabasi_100nodes_network.client[94] 	avg_time[94].real 	0
scalar barabasi_100nodes_network.client[95] 	hdistance[95].real 	1.9150669122706
scalar barabasi_100nodes_network.client[95] 	downloads[95].real 	180236
scalar barabasi_100nodes_network.client[95] 	avg_time[95].real 	0
scalar barabasi_100nodes_network.client[96] 	hdistance[96].real 	2.299037417754
scalar barabasi_100nodes_network.client[96] 	downloads[96].real 	180556
scalar barabasi_100nodes_network.client[96] 	avg_time[96].real 	0
scalar barabasi_100nodes_network.client[97] 	hdistance[97].real 	1.9967358474882
scalar barabasi_100nodes_network.client[97] 	downloads[97].real 	180445
scalar barabasi_100nodes_network.client[97] 	avg_time[97].real 	0
scalar barabasi_100nodes_network.client[98] 	hdistance[98].real 	2.2415717482658
scalar barabasi_100nodes_network.client[98] 	downloads[98].real 	179189
scalar barabasi_100nodes_network.client[98] 	avg_time[98].real 	0
scalar barabasi_100nodes_network.client[99] 	hdistance[99].real 	2.3052305136369
scalar barabasi_100nodes_network.client[99] 	downloads[99].real 	180575
scalar barabasi_100nodes_network.client[99] 	avg_time[99].real 	0
