version 2
run General-0-20150721-11:53:07-20895
attr C 1e4
attr D lce
attr F spr
attr R lru
attr a 1
attr brates 1
attr configname General
attr ctlg 1e6
attr datetime 20150721-11:53:07
attr experiment General
attr inifile omnetpp.ini
attr iterationvars "$net=barabasi_100nodes, $rep=0, $lambda=100, $a=1, $ctlg=1e6, $brates=1, $F=spr, $ttl=1000, $D=lce, $R=lru, $C=1e4, $window=60, $variance=0.05, $mytime=1800"
attr iterationvars2 "$net=barabasi_100nodes, $rep=0, $lambda=100, $a=1, $ctlg=1e6, $brates=1, $F=spr, $ttl=1000, $D=lce, $R=lru, $C=1e4, $window=60, $variance=0.05, $mytime=1800, $repetition=0"
attr lambda 100
attr measurement "$net=barabasi_100nodes, $rep=0, $lambda=100, $a=1, $ctlg=1e6, $brates=1, $F=spr, $ttl=1000, $D=lce, $R=lru, $C=1e4, $window=60, $variance=0.05, $mytime=1800"
attr mytime 1800
attr net barabasi_100nodes
attr network networks.${net=barabasi_100nodes}_network
attr processid 20895
attr rep 0
attr repetition 0
attr replication #0
attr resultdir results
attr runnumber 0
attr seedset 0
attr ttl 1000
attr variance 0.05
attr window 60

scalar . 	C 	1e4
scalar . 	a 	1
scalar . 	brates 	1
scalar . 	ctlg 	1e6
scalar . 	lambda 	100
scalar . 	mytime 	1800
scalar . 	rep 	0
scalar . 	ttl 	1000
scalar . 	variance 	0.05
scalar . 	window 	60
scalar barabasi_100nodes_network.content_distribution 	repo-0 	37
scalar barabasi_100nodes_network.content_distribution 	repo-1 	12
scalar barabasi_100nodes_network.content_distribution 	repo-2 	72
scalar barabasi_100nodes_network.content_distribution 	repo-3 	9
scalar barabasi_100nodes_network.content_distribution 	repo-4 	75
scalar barabasi_100nodes_network.content_distribution 	repo-5 	5
scalar barabasi_100nodes_network.content_distribution 	repo-6 	79
scalar barabasi_100nodes_network.content_distribution 	repo-7 	64
scalar barabasi_100nodes_network.content_distribution 	repo-8 	16
scalar barabasi_100nodes_network.content_distribution 	repo-9 	1
scalar barabasi_100nodes_network.content_distribution 	repo-10 	76
scalar barabasi_100nodes_network.content_distribution 	repo-11 	71
scalar barabasi_100nodes_network.content_distribution 	repo-12 	6
scalar barabasi_100nodes_network.content_distribution 	repo-13 	25
scalar barabasi_100nodes_network.content_distribution 	repo-14 	50
scalar barabasi_100nodes_network.content_distribution 	repo-15 	20
scalar barabasi_100nodes_network.content_distribution 	repo-16 	18
scalar barabasi_100nodes_network.content_distribution 	repo-17 	84
scalar barabasi_100nodes_network.content_distribution 	repo-18 	11
scalar barabasi_100nodes_network.content_distribution 	repo-19 	28
scalar barabasi_100nodes_network.content_distribution 	repo-20 	29
scalar barabasi_100nodes_network.content_distribution 	repo-21 	14
scalar barabasi_100nodes_network.content_distribution 	repo-22 	68
scalar barabasi_100nodes_network.content_distribution 	repo-23 	87
scalar barabasi_100nodes_network.content_distribution 	repo-24 	94
scalar barabasi_100nodes_network.content_distribution 	repo-25 	96
scalar barabasi_100nodes_network.content_distribution 	repo-26 	86
scalar barabasi_100nodes_network.content_distribution 	repo-27 	13
scalar barabasi_100nodes_network.content_distribution 	repo-28 	7
scalar barabasi_100nodes_network.content_distribution 	repo-29 	63
scalar barabasi_100nodes_network.content_distribution 	repo-30 	61
scalar barabasi_100nodes_network.content_distribution 	repo-31 	22
scalar barabasi_100nodes_network.content_distribution 	repo-32 	57
scalar barabasi_100nodes_network.content_distribution 	repo-33 	0
scalar barabasi_100nodes_network.content_distribution 	repo-34 	60
scalar barabasi_100nodes_network.content_distribution 	repo-35 	81
scalar barabasi_100nodes_network.content_distribution 	repo-36 	8
scalar barabasi_100nodes_network.content_distribution 	repo-37 	88
scalar barabasi_100nodes_network.content_distribution 	repo-38 	47
scalar barabasi_100nodes_network.content_distribution 	repo-39 	30
scalar barabasi_100nodes_network.content_distribution 	repo-40 	3
scalar barabasi_100nodes_network.content_distribution 	repo-41 	70
scalar barabasi_100nodes_network.content_distribution 	repo-42 	21
scalar barabasi_100nodes_network.content_distribution 	repo-43 	49
scalar barabasi_100nodes_network.content_distribution 	repo-44 	24
scalar barabasi_100nodes_network.content_distribution 	repo-45 	43
scalar barabasi_100nodes_network.content_distribution 	repo-46 	26
scalar barabasi_100nodes_network.content_distribution 	repo-47 	52
scalar barabasi_100nodes_network.content_distribution 	repo-48 	80
scalar barabasi_100nodes_network.content_distribution 	repo-49 	41
scalar barabasi_100nodes_network.content_distribution 	repo-50 	82
scalar barabasi_100nodes_network.content_distribution 	repo-51 	15
scalar barabasi_100nodes_network.content_distribution 	repo-52 	98
scalar barabasi_100nodes_network.content_distribution 	repo-53 	67
scalar barabasi_100nodes_network.content_distribution 	repo-54 	23
scalar barabasi_100nodes_network.content_distribution 	repo-55 	27
scalar barabasi_100nodes_network.content_distribution 	repo-56 	83
scalar barabasi_100nodes_network.content_distribution 	repo-57 	38
scalar barabasi_100nodes_network.content_distribution 	repo-58 	32
scalar barabasi_100nodes_network.content_distribution 	repo-59 	34
scalar barabasi_100nodes_network.content_distribution 	repo-60 	10
scalar barabasi_100nodes_network.content_distribution 	repo-61 	92
scalar barabasi_100nodes_network.content_distribution 	repo-62 	74
scalar barabasi_100nodes_network.content_distribution 	repo-63 	62
scalar barabasi_100nodes_network.content_distribution 	repo-64 	46
scalar barabasi_100nodes_network.content_distribution 	repo-65 	55
scalar barabasi_100nodes_network.content_distribution 	repo-66 	65
scalar barabasi_100nodes_network.content_distribution 	repo-67 	77
scalar barabasi_100nodes_network.content_distribution 	repo-68 	85
scalar barabasi_100nodes_network.content_distribution 	repo-69 	2
scalar barabasi_100nodes_network.content_distribution 	repo-70 	91
scalar barabasi_100nodes_network.content_distribution 	repo-71 	36
scalar barabasi_100nodes_network.content_distribution 	repo-72 	45
scalar barabasi_100nodes_network.content_distribution 	repo-73 	97
scalar barabasi_100nodes_network.content_distribution 	repo-74 	54
scalar barabasi_100nodes_network.content_distribution 	repo-75 	66
scalar barabasi_100nodes_network.content_distribution 	repo-76 	48
scalar barabasi_100nodes_network.content_distribution 	repo-77 	17
scalar barabasi_100nodes_network.content_distribution 	repo-78 	42
scalar barabasi_100nodes_network.content_distribution 	repo-79 	53
scalar barabasi_100nodes_network.content_distribution 	repo-80 	56
scalar barabasi_100nodes_network.content_distribution 	repo-81 	89
scalar barabasi_100nodes_network.content_distribution 	repo-82 	59
scalar barabasi_100nodes_network.content_distribution 	repo-83 	69
scalar barabasi_100nodes_network.content_distribution 	repo-84 	40
scalar barabasi_100nodes_network.content_distribution 	repo-85 	78
scalar barabasi_100nodes_network.content_distribution 	repo-86 	35
scalar barabasi_100nodes_network.content_distribution 	repo-87 	93
scalar barabasi_100nodes_network.content_distribution 	repo-88 	33
scalar barabasi_100nodes_network.content_distribution 	repo-89 	31
scalar barabasi_100nodes_network.content_distribution 	repo-90 	99
scalar barabasi_100nodes_network.content_distribution 	repo-91 	44
scalar barabasi_100nodes_network.content_distribution 	repo-92 	19
scalar barabasi_100nodes_network.content_distribution 	repo-93 	39
scalar barabasi_100nodes_network.content_distribution 	repo-94 	51
scalar barabasi_100nodes_network.content_distribution 	repo-95 	58
scalar barabasi_100nodes_network.content_distribution 	repo-96 	73
scalar barabasi_100nodes_network.content_distribution 	repo-97 	95
scalar barabasi_100nodes_network.content_distribution 	repo-98 	4
scalar barabasi_100nodes_network.content_distribution 	repo-99 	90
scalar barabasi_100nodes_network.content_distribution 	client-0 	27
scalar barabasi_100nodes_network.content_distribution 	client-1 	60
scalar barabasi_100nodes_network.content_distribution 	client-2 	12
scalar barabasi_100nodes_network.content_distribution 	client-3 	17
scalar barabasi_100nodes_network.content_distribution 	client-4 	71
scalar barabasi_100nodes_network.content_distribution 	client-5 	91
scalar barabasi_100nodes_network.content_distribution 	client-6 	7
scalar barabasi_100nodes_network.content_distribution 	client-7 	83
scalar barabasi_100nodes_network.content_distribution 	client-8 	56
scalar barabasi_100nodes_network.content_distribution 	client-9 	51
scalar barabasi_100nodes_network.content_distribution 	client-10 	32
scalar barabasi_100nodes_network.content_distribution 	client-11 	76
scalar barabasi_100nodes_network.content_distribution 	client-12 	62
scalar barabasi_100nodes_network.content_distribution 	client-13 	96
scalar barabasi_100nodes_network.content_distribution 	client-14 	30
scalar barabasi_100nodes_network.content_distribution 	client-15 	22
scalar barabasi_100nodes_network.content_distribution 	client-16 	5
scalar barabasi_100nodes_network.content_distribution 	client-17 	95
scalar barabasi_100nodes_network.content_distribution 	client-18 	18
scalar barabasi_100nodes_network.content_distribution 	client-19 	93
scalar barabasi_100nodes_network.content_distribution 	client-20 	29
scalar barabasi_100nodes_network.content_distribution 	client-21 	52
scalar barabasi_100nodes_network.content_distribution 	client-22 	31
scalar barabasi_100nodes_network.content_distribution 	client-23 	49
scalar barabasi_100nodes_network.content_distribution 	client-24 	98
scalar barabasi_100nodes_network.content_distribution 	client-25 	45
scalar barabasi_100nodes_network.content_distribution 	client-26 	86
scalar barabasi_100nodes_network.content_distribution 	client-27 	15
scalar barabasi_100nodes_network.content_distribution 	client-28 	48
scalar barabasi_100nodes_network.content_distribution 	client-29 	28
scalar barabasi_100nodes_network.content_distribution 	client-30 	43
scalar barabasi_100nodes_network.content_distribution 	client-31 	19
scalar barabasi_100nodes_network.content_distribution 	client-32 	79
scalar barabasi_100nodes_network.content_distribution 	client-33 	70
scalar barabasi_100nodes_network.content_distribution 	client-34 	88
scalar barabasi_100nodes_network.content_distribution 	client-35 	11
scalar barabasi_100nodes_network.content_distribution 	client-36 	65
scalar barabasi_100nodes_network.content_distribution 	client-37 	63
scalar barabasi_100nodes_network.content_distribution 	client-38 	42
scalar barabasi_100nodes_network.content_distribution 	client-39 	82
scalar barabasi_100nodes_network.content_distribution 	client-40 	40
scalar barabasi_100nodes_network.content_distribution 	client-41 	44
scalar barabasi_100nodes_network.content_distribution 	client-42 	16
scalar barabasi_100nodes_network.content_distribution 	client-43 	0
scalar barabasi_100nodes_network.content_distribution 	client-44 	97
scalar barabasi_100nodes_network.content_distribution 	client-45 	14
scalar barabasi_100nodes_network.content_distribution 	client-46 	36
scalar barabasi_100nodes_network.content_distribution 	client-47 	26
scalar barabasi_100nodes_network.content_distribution 	client-48 	1
scalar barabasi_100nodes_network.content_distribution 	client-49 	34
scalar barabasi_100nodes_network.content_distribution 	client-50 	94
scalar barabasi_100nodes_network.content_distribution 	client-51 	21
scalar barabasi_100nodes_network.content_distribution 	client-52 	68
scalar barabasi_100nodes_network.content_distribution 	client-53 	67
scalar barabasi_100nodes_network.content_distribution 	client-54 	64
scalar barabasi_100nodes_network.content_distribution 	client-55 	89
scalar barabasi_100nodes_network.content_distribution 	client-56 	33
scalar barabasi_100nodes_network.content_distribution 	client-57 	58
scalar barabasi_100nodes_network.content_distribution 	client-58 	4
scalar barabasi_100nodes_network.content_distribution 	client-59 	61
scalar barabasi_100nodes_network.content_distribution 	client-60 	50
scalar barabasi_100nodes_network.content_distribution 	client-61 	92
scalar barabasi_100nodes_network.content_distribution 	client-62 	25
scalar barabasi_100nodes_network.content_distribution 	client-63 	13
scalar barabasi_100nodes_network.content_distribution 	client-64 	38
scalar barabasi_100nodes_network.content_distribution 	client-65 	85
scalar barabasi_100nodes_network.content_distribution 	client-66 	84
scalar barabasi_100nodes_network.content_distribution 	client-67 	75
scalar barabasi_100nodes_network.content_distribution 	client-68 	99
scalar barabasi_100nodes_network.content_distribution 	client-69 	66
scalar barabasi_100nodes_network.content_distribution 	client-70 	74
scalar barabasi_100nodes_network.content_distribution 	client-71 	37
scalar barabasi_100nodes_network.content_distribution 	client-72 	72
scalar barabasi_100nodes_network.content_distribution 	client-73 	24
scalar barabasi_100nodes_network.content_distribution 	client-74 	41
scalar barabasi_100nodes_network.content_distribution 	client-75 	46
scalar barabasi_100nodes_network.content_distribution 	client-76 	35
scalar barabasi_100nodes_network.content_distribution 	client-77 	57
scalar barabasi_100nodes_network.content_distribution 	client-78 	6
scalar barabasi_100nodes_network.content_distribution 	client-79 	3
scalar barabasi_100nodes_network.content_distribution 	client-80 	20
scalar barabasi_100nodes_network.content_distribution 	client-81 	9
scalar barabasi_100nodes_network.content_distribution 	client-82 	90
scalar barabasi_100nodes_network.content_distribution 	client-83 	69
scalar barabasi_100nodes_network.content_distribution 	client-84 	23
scalar barabasi_100nodes_network.content_distribution 	client-85 	39
scalar barabasi_100nodes_network.content_distribution 	client-86 	87
scalar barabasi_100nodes_network.content_distribution 	client-87 	10
scalar barabasi_100nodes_network.content_distribution 	client-88 	78
scalar barabasi_100nodes_network.content_distribution 	client-89 	59
scalar barabasi_100nodes_network.content_distribution 	client-90 	53
scalar barabasi_100nodes_network.content_distribution 	client-91 	77
scalar barabasi_100nodes_network.content_distribution 	client-92 	55
scalar barabasi_100nodes_network.content_distribution 	client-93 	80
scalar barabasi_100nodes_network.content_distribution 	client-94 	47
scalar barabasi_100nodes_network.content_distribution 	client-95 	81
scalar barabasi_100nodes_network.content_distribution 	client-96 	54
scalar barabasi_100nodes_network.content_distribution 	client-97 	8
scalar barabasi_100nodes_network.content_distribution 	client-98 	73
scalar barabasi_100nodes_network.content_distribution 	client-99 	2
scalar barabasi_100nodes_network.content_distribution 	repo-0_card 	250050
scalar barabasi_100nodes_network.content_distribution 	repo-0_price 	0
scalar barabasi_100nodes_network.content_distribution 	repo-1_card 	250103
scalar barabasi_100nodes_network.content_distribution 	repo-1_price 	0
scalar barabasi_100nodes_network.content_distribution 	repo-2_card 	249952
scalar barabasi_100nodes_network.content_distribution 	repo-2_price 	0
scalar barabasi_100nodes_network.content_distribution 	repo-3_card 	249895
scalar barabasi_100nodes_network.content_distribution 	repo-3_price 	0
scalar barabasi_100nodes_network.content_distribution 	repo-4_card 	0
scalar barabasi_100nodes_network.content_distribution 	repo-4_price 	0
scalar barabasi_100nodes_network.content_distribution 	repo-5_card 	0
scalar barabasi_100nodes_network.content_distribution 	repo-5_price 	0
scalar barabasi_100nodes_network.content_distribution 	repo-6_card 	0
scalar barabasi_100nodes_network.content_distribution 	repo-6_price 	0
scalar barabasi_100nodes_network.content_distribution 	repo-7_card 	0
scalar barabasi_100nodes_network.content_distribution 	repo-7_price 	0
scalar barabasi_100nodes_network.content_distribution 	repo-8_card 	0
scalar barabasi_100nodes_network.content_distribution 	repo-8_price 	0
scalar barabasi_100nodes_network.content_distribution 	repo-9_card 	0
scalar barabasi_100nodes_network.content_distribution 	repo-9_price 	0
scalar barabasi_100nodes_network.content_distribution 	repo-10_card 	0
scalar barabasi_100nodes_network.content_distribution 	repo-10_price 	0
scalar barabasi_100nodes_network.content_distribution 	repo-11_card 	0
scalar barabasi_100nodes_network.content_distribution 	repo-11_price 	0
scalar barabasi_100nodes_network.content_distribution 	repo-12_card 	0
scalar barabasi_100nodes_network.content_distribution 	repo-12_price 	0
scalar barabasi_100nodes_network.content_distribution 	repo-13_card 	0
scalar barabasi_100nodes_network.content_distribution 	repo-13_price 	0
scalar barabasi_100nodes_network.content_distribution 	repo-14_card 	0
scalar barabasi_100nodes_network.content_distribution 	repo-14_price 	0
scalar barabasi_100nodes_network.content_distribution 	repo-15_card 	0
scalar barabasi_100nodes_network.content_distribution 	repo-15_price 	0
scalar barabasi_100nodes_network.content_distribution 	repo-16_card 	0
scalar barabasi_100nodes_network.content_distribution 	repo-16_price 	0
scalar barabasi_100nodes_network.content_distribution 	repo-17_card 	0
scalar barabasi_100nodes_network.content_distribution 	repo-17_price 	0
scalar barabasi_100nodes_network.content_distribution 	repo-18_card 	0
scalar barabasi_100nodes_network.content_distribution 	repo-18_price 	0
scalar barabasi_100nodes_network.content_distribution 	repo-19_card 	0
scalar barabasi_100nodes_network.content_distribution 	repo-19_price 	0
scalar barabasi_100nodes_network.content_distribution 	repo-20_card 	0
scalar barabasi_100nodes_network.content_distribution 	repo-20_price 	0
scalar barabasi_100nodes_network.content_distribution 	repo-21_card 	0
scalar barabasi_100nodes_network.content_distribution 	repo-21_price 	0
scalar barabasi_100nodes_network.content_distribution 	repo-22_card 	0
scalar barabasi_100nodes_network.content_distribution 	repo-22_price 	0
scalar barabasi_100nodes_network.content_distribution 	repo-23_card 	0
scalar barabasi_100nodes_network.content_distribution 	repo-23_price 	0
scalar barabasi_100nodes_network.content_distribution 	repo-24_card 	0
scalar barabasi_100nodes_network.content_distribution 	repo-24_price 	0
scalar barabasi_100nodes_network.content_distribution 	repo-25_card 	0
scalar barabasi_100nodes_network.content_distribution 	repo-25_price 	0
scalar barabasi_100nodes_network.content_distribution 	repo-26_card 	0
scalar barabasi_100nodes_network.content_distribution 	repo-26_price 	0
scalar barabasi_100nodes_network.content_distribution 	repo-27_card 	0
scalar barabasi_100nodes_network.content_distribution 	repo-27_price 	0
scalar barabasi_100nodes_network.content_distribution 	repo-28_card 	0
scalar barabasi_100nodes_network.content_distribution 	repo-28_price 	0
scalar barabasi_100nodes_network.content_distribution 	repo-29_card 	0
scalar barabasi_100nodes_network.content_distribution 	repo-29_price 	0
scalar barabasi_100nodes_network.content_distribution 	repo-30_card 	0
scalar barabasi_100nodes_network.content_distribution 	repo-30_price 	0
scalar barabasi_100nodes_network.content_distribution 	repo-31_card 	0
scalar barabasi_100nodes_network.content_distribution 	repo-31_price 	0
scalar barabasi_100nodes_network.content_distribution 	repo-32_card 	0
scalar barabasi_100nodes_network.content_distribution 	repo-32_price 	0
scalar barabasi_100nodes_network.content_distribution 	repo-33_card 	0
scalar barabasi_100nodes_network.content_distribution 	repo-33_price 	0
scalar barabasi_100nodes_network.content_distribution 	repo-34_card 	0
scalar barabasi_100nodes_network.content_distribution 	repo-34_price 	0
scalar barabasi_100nodes_network.content_distribution 	repo-35_card 	0
scalar barabasi_100nodes_network.content_distribution 	repo-35_price 	0
scalar barabasi_100nodes_network.content_distribution 	repo-36_card 	0
scalar barabasi_100nodes_network.content_distribution 	repo-36_price 	0
scalar barabasi_100nodes_network.content_distribution 	repo-37_card 	0
scalar barabasi_100nodes_network.content_distribution 	repo-37_price 	0
scalar barabasi_100nodes_network.content_distribution 	repo-38_card 	0
scalar barabasi_100nodes_network.content_distribution 	repo-38_price 	0
scalar barabasi_100nodes_network.content_distribution 	repo-39_card 	0
scalar barabasi_100nodes_network.content_distribution 	repo-39_price 	0
scalar barabasi_100nodes_network.content_distribution 	repo-40_card 	0
scalar barabasi_100nodes_network.content_distribution 	repo-40_price 	0
scalar barabasi_100nodes_network.content_distribution 	repo-41_card 	0
scalar barabasi_100nodes_network.content_distribution 	repo-41_price 	0
scalar barabasi_100nodes_network.content_distribution 	repo-42_card 	0
scalar barabasi_100nodes_network.content_distribution 	repo-42_price 	0
scalar barabasi_100nodes_network.content_distribution 	repo-43_card 	0
scalar barabasi_100nodes_network.content_distribution 	repo-43_price 	0
scalar barabasi_100nodes_network.content_distribution 	repo-44_card 	0
scalar barabasi_100nodes_network.content_distribution 	repo-44_price 	0
scalar barabasi_100nodes_network.content_distribution 	repo-45_card 	0
scalar barabasi_100nodes_network.content_distribution 	repo-45_price 	0
scalar barabasi_100nodes_network.content_distribution 	repo-46_card 	0
scalar barabasi_100nodes_network.content_distribution 	repo-46_price 	0
scalar barabasi_100nodes_network.content_distribution 	repo-47_card 	0
scalar barabasi_100nodes_network.content_distribution 	repo-47_price 	0
scalar barabasi_100nodes_network.content_distribution 	repo-48_card 	0
scalar barabasi_100nodes_network.content_distribution 	repo-48_price 	0
scalar barabasi_100nodes_network.content_distribution 	repo-49_card 	0
scalar barabasi_100nodes_network.content_distribution 	repo-49_price 	0
scalar barabasi_100nodes_network.content_distribution 	repo-50_card 	0
scalar barabasi_100nodes_network.content_distribution 	repo-50_price 	0
scalar barabasi_100nodes_network.content_distribution 	repo-51_card 	0
scalar barabasi_100nodes_network.content_distribution 	repo-51_price 	0
scalar barabasi_100nodes_network.content_distribution 	repo-52_card 	0
scalar barabasi_100nodes_network.content_distribution 	repo-52_price 	0
scalar barabasi_100nodes_network.content_distribution 	repo-53_card 	0
scalar barabasi_100nodes_network.content_distribution 	repo-53_price 	0
scalar barabasi_100nodes_network.content_distribution 	repo-54_card 	0
scalar barabasi_100nodes_network.content_distribution 	repo-54_price 	0
scalar barabasi_100nodes_network.content_distribution 	repo-55_card 	0
scalar barabasi_100nodes_network.content_distribution 	repo-55_price 	0
scalar barabasi_100nodes_network.content_distribution 	repo-56_card 	0
scalar barabasi_100nodes_network.content_distribution 	repo-56_price 	0
scalar barabasi_100nodes_network.content_distribution 	repo-57_card 	0
scalar barabasi_100nodes_network.content_distribution 	repo-57_price 	0
scalar barabasi_100nodes_network.content_distribution 	repo-58_card 	0
scalar barabasi_100nodes_network.content_distribution 	repo-58_price 	0
scalar barabasi_100nodes_network.content_distribution 	repo-59_card 	0
scalar barabasi_100nodes_network.content_distribution 	repo-59_price 	0
scalar barabasi_100nodes_network.content_distribution 	repo-60_card 	0
scalar barabasi_100nodes_network.content_distribution 	repo-60_price 	0
scalar barabasi_100nodes_network.content_distribution 	repo-61_card 	0
scalar barabasi_100nodes_network.content_distribution 	repo-61_price 	0
scalar barabasi_100nodes_network.content_distribution 	repo-62_card 	0
scalar barabasi_100nodes_network.content_distribution 	repo-62_price 	0
scalar barabasi_100nodes_network.content_distribution 	repo-63_card 	0
scalar barabasi_100nodes_network.content_distribution 	repo-63_price 	0
scalar barabasi_100nodes_network.content_distribution 	repo-64_card 	0
scalar barabasi_100nodes_network.content_distribution 	repo-64_price 	0
scalar barabasi_100nodes_network.content_distribution 	repo-65_card 	0
scalar barabasi_100nodes_network.content_distribution 	repo-65_price 	0
scalar barabasi_100nodes_network.content_distribution 	repo-66_card 	0
scalar barabasi_100nodes_network.content_distribution 	repo-66_price 	0
scalar barabasi_100nodes_network.content_distribution 	repo-67_card 	0
scalar barabasi_100nodes_network.content_distribution 	repo-67_price 	0
scalar barabasi_100nodes_network.content_distribution 	repo-68_card 	0
scalar barabasi_100nodes_network.content_distribution 	repo-68_price 	0
scalar barabasi_100nodes_network.content_distribution 	repo-69_card 	0
scalar barabasi_100nodes_network.content_distribution 	repo-69_price 	0
scalar barabasi_100nodes_network.content_distribution 	repo-70_card 	0
scalar barabasi_100nodes_network.content_distribution 	repo-70_price 	0
scalar barabasi_100nodes_network.content_distribution 	repo-71_card 	0
scalar barabasi_100nodes_network.content_distribution 	repo-71_price 	0
scalar barabasi_100nodes_network.content_distribution 	repo-72_card 	0
scalar barabasi_100nodes_network.content_distribution 	repo-72_price 	0
scalar barabasi_100nodes_network.content_distribution 	repo-73_card 	0
scalar barabasi_100nodes_network.content_distribution 	repo-73_price 	0
scalar barabasi_100nodes_network.content_distribution 	repo-74_card 	0
scalar barabasi_100nodes_network.content_distribution 	repo-74_price 	0
scalar barabasi_100nodes_network.content_distribution 	repo-75_card 	0
scalar barabasi_100nodes_network.content_distribution 	repo-75_price 	0
scalar barabasi_100nodes_network.content_distribution 	repo-76_card 	0
scalar barabasi_100nodes_network.content_distribution 	repo-76_price 	0
scalar barabasi_100nodes_network.content_distribution 	repo-77_card 	0
scalar barabasi_100nodes_network.content_distribution 	repo-77_price 	0
scalar barabasi_100nodes_network.content_distribution 	repo-78_card 	0
scalar barabasi_100nodes_network.content_distribution 	repo-78_price 	0
scalar barabasi_100nodes_network.content_distribution 	repo-79_card 	0
scalar barabasi_100nodes_network.content_distribution 	repo-79_price 	0
scalar barabasi_100nodes_network.content_distribution 	repo-80_card 	0
scalar barabasi_100nodes_network.content_distribution 	repo-80_price 	0
scalar barabasi_100nodes_network.content_distribution 	repo-81_card 	0
scalar barabasi_100nodes_network.content_distribution 	repo-81_price 	0
scalar barabasi_100nodes_network.content_distribution 	repo-82_card 	0
scalar barabasi_100nodes_network.content_distribution 	repo-82_price 	0
scalar barabasi_100nodes_network.content_distribution 	repo-83_card 	0
scalar barabasi_100nodes_network.content_distribution 	repo-83_price 	0
scalar barabasi_100nodes_network.content_distribution 	repo-84_card 	0
scalar barabasi_100nodes_network.content_distribution 	repo-84_price 	0
scalar barabasi_100nodes_network.content_distribution 	repo-85_card 	0
scalar barabasi_100nodes_network.content_distribution 	repo-85_price 	0
scalar barabasi_100nodes_network.content_distribution 	repo-86_card 	0
scalar barabasi_100nodes_network.content_distribution 	repo-86_price 	0
scalar barabasi_100nodes_network.content_distribution 	repo-87_card 	0
scalar barabasi_100nodes_network.content_distribution 	repo-87_price 	0
scalar barabasi_100nodes_network.content_distribution 	repo-88_card 	0
scalar barabasi_100nodes_network.content_distribution 	repo-88_price 	0
scalar barabasi_100nodes_network.content_distribution 	repo-89_card 	0
scalar barabasi_100nodes_network.content_distribution 	repo-89_price 	0
scalar barabasi_100nodes_network.content_distribution 	repo-90_card 	0
scalar barabasi_100nodes_network.content_distribution 	repo-90_price 	0
scalar barabasi_100nodes_network.content_distribution 	repo-91_card 	0
scalar barabasi_100nodes_network.content_distribution 	repo-91_price 	0
scalar barabasi_100nodes_network.content_distribution 	repo-92_card 	0
scalar barabasi_100nodes_network.content_distribution 	repo-92_price 	0
scalar barabasi_100nodes_network.content_distribution 	repo-93_card 	0
scalar barabasi_100nodes_network.content_distribution 	repo-93_price 	0
scalar barabasi_100nodes_network.content_distribution 	repo-94_card 	0
scalar barabasi_100nodes_network.content_distribution 	repo-94_price 	0
scalar barabasi_100nodes_network.content_distribution 	repo-95_card 	0
scalar barabasi_100nodes_network.content_distribution 	repo-95_price 	0
scalar barabasi_100nodes_network.content_distribution 	repo-96_card 	0
scalar barabasi_100nodes_network.content_distribution 	repo-96_price 	0
scalar barabasi_100nodes_network.content_distribution 	repo-97_card 	0
scalar barabasi_100nodes_network.content_distribution 	repo-97_price 	0
scalar barabasi_100nodes_network.content_distribution 	repo-98_card 	0
scalar barabasi_100nodes_network.content_distribution 	repo-98_price 	0
scalar barabasi_100nodes_network.content_distribution 	repo-99_card 	0
scalar barabasi_100nodes_network.content_distribution 	repo-99_price 	0
scalar barabasi_100nodes_network.statistics 	stabilization_time 	352.8
scalar barabasi_100nodes_network.statistics 	p_hit 	0.25928583595199
scalar barabasi_100nodes_network.statistics 	interests 	436263.63
scalar barabasi_100nodes_network.statistics 	data 	256281.36
scalar barabasi_100nodes_network.statistics 	hdistance 	1.7954289326046
scalar barabasi_100nodes_network.statistics 	avg_time 	0
scalar barabasi_100nodes_network.statistics 	downloads 	17998227
scalar barabasi_100nodes_network.statistics 	total_cost 	0
scalar barabasi_100nodes_network.statistics 	total_replicas 	1000000
scalar barabasi_100nodes_network.statistics 	"representations_downloaded 1:" 	0
scalar barabasi_100nodes_network.statistics 	"slots_per_representation 100:" 	0
scalar barabasi_100nodes_network.statistics 	inner_hit 	0.6284895728896
scalar barabasi_100nodes_network.statistics 	execution_time 	576
scalar barabasi_100nodes_network.node[0].core_layer 	interests[0] 	4410537
scalar barabasi_100nodes_network.node[0].core_layer 	repo_load[0] 	514185
scalar barabasi_100nodes_network.node[0].core_layer 	data[0] 	3493067
scalar barabasi_100nodes_network.node[0].core_layer 	slots_sent[face$o[1]->client[0]] 	18050900
scalar barabasi_100nodes_network.node[0].core_layer 	slots_sent[face$o[2]->node[1]] 	8130100
scalar barabasi_100nodes_network.node[0].core_layer 	slots_sent[face$o[3]->node[2]] 	248538700
scalar barabasi_100nodes_network.node[0].core_layer 	slots_sent[face$o[4]->node[5]] 	25555400
scalar barabasi_100nodes_network.node[0].core_layer 	slots_sent[face$o[5]->node[10]] 	15739800
scalar barabasi_100nodes_network.node[0].core_layer 	slots_sent[face$o[6]->node[11]] 	8048700
scalar barabasi_100nodes_network.node[0].core_layer 	slots_sent[face$o[7]->node[15]] 	22959600
scalar barabasi_100nodes_network.node[0].core_layer 	slots_sent[face$o[8]->node[21]] 	20886400
scalar barabasi_100nodes_network.node[0].core_layer 	slots_sent[face$o[9]->node[22]] 	8133800
scalar barabasi_100nodes_network.node[0].core_layer 	slots_sent[face$o[10]->node[28]] 	8116000
scalar barabasi_100nodes_network.node[0].core_layer 	slots_sent[face$o[11]->node[37]] 	5749100
scalar barabasi_100nodes_network.node[0].core_layer 	slots_sent[face$o[12]->node[44]] 	8089300
scalar barabasi_100nodes_network.node[0].core_layer 	slots_sent[face$o[13]->node[58]] 	15668500
scalar barabasi_100nodes_network.node[0].core_layer 	slots_sent[face$o[14]->node[73]] 	11220600
scalar barabasi_100nodes_network.node[0].core_layer 	slots_sent[face$o[15]->node[74]] 	8117700
scalar barabasi_100nodes_network.node[0].core_layer 	slots_sent[face$o[16]->node[93]] 	8049100
scalar barabasi_100nodes_network.node[0].content_store 	p_hit[0] 	0.091436711674792
scalar barabasi_100nodes_network.node[0].content_store 	hits[0] 	403285
scalar barabasi_100nodes_network.node[0].content_store 	misses[0] 	4007252
scalar barabasi_100nodes_network.node[0].content_store 	decision_yes[0] 	3493067
scalar barabasi_100nodes_network.node[0].content_store 	decision_no[0] 	514185
scalar barabasi_100nodes_network.node[0].content_store 	decision_ratio[0] 	0.87168638258837
scalar barabasi_100nodes_network.node[1].core_layer 	interests[1] 	180339
scalar barabasi_100nodes_network.node[1].core_layer 	data[1] 	81301
scalar barabasi_100nodes_network.node[1].core_layer 	slots_sent[face$o[1]->client[1]] 	18033900
scalar barabasi_100nodes_network.node[1].core_layer 	slots_sent[face$o[2]->node[0]] 	0
scalar barabasi_100nodes_network.node[1].content_store 	p_hit[1] 	0.54917682808488
scalar barabasi_100nodes_network.node[1].content_store 	hits[1] 	99038
scalar barabasi_100nodes_network.node[1].content_store 	misses[1] 	81301
scalar barabasi_100nodes_network.node[1].content_store 	decision_yes[1] 	81301
scalar barabasi_100nodes_network.node[1].content_store 	decision_no[1] 	0
scalar barabasi_100nodes_network.node[1].content_store 	decision_ratio[1] 	1
scalar barabasi_100nodes_network.node[2].core_layer 	interests[2] 	5687304
scalar barabasi_100nodes_network.node[2].core_layer 	data[2] 	5085852
scalar barabasi_100nodes_network.node[2].core_layer 	slots_sent[face$o[1]->client[2]] 	18055900
scalar barabasi_100nodes_network.node[2].core_layer 	slots_sent[face$o[2]->node[0]] 	47397800
scalar barabasi_100nodes_network.node[2].core_layer 	slots_sent[face$o[3]->node[3]] 	15683100
scalar barabasi_100nodes_network.node[2].core_layer 	slots_sent[face$o[4]->node[4]] 	32116900
scalar barabasi_100nodes_network.node[2].core_layer 	slots_sent[face$o[5]->node[6]] 	8080500
scalar barabasi_100nodes_network.node[2].core_layer 	slots_sent[face$o[6]->node[7]] 	86981000
scalar barabasi_100nodes_network.node[2].core_layer 	slots_sent[face$o[7]->node[8]] 	45930100
scalar barabasi_100nodes_network.node[2].core_layer 	slots_sent[face$o[8]->node[13]] 	35272000
scalar barabasi_100nodes_network.node[2].core_layer 	slots_sent[face$o[9]->node[16]] 	51602700
scalar barabasi_100nodes_network.node[2].core_layer 	slots_sent[face$o[10]->node[18]] 	25787100
scalar barabasi_100nodes_network.node[2].core_layer 	slots_sent[face$o[11]->node[25]] 	15653100
scalar barabasi_100nodes_network.node[2].core_layer 	slots_sent[face$o[12]->node[26]] 	26162100
scalar barabasi_100nodes_network.node[2].core_layer 	slots_sent[face$o[13]->node[29]] 	8045200
scalar barabasi_100nodes_network.node[2].core_layer 	slots_sent[face$o[14]->node[32]] 	23003800
scalar barabasi_100nodes_network.node[2].core_layer 	slots_sent[face$o[15]->node[33]] 	8091300
scalar barabasi_100nodes_network.node[2].core_layer 	slots_sent[face$o[16]->node[34]] 	8088300
scalar barabasi_100nodes_network.node[2].core_layer 	slots_sent[face$o[17]->node[36]] 	15637000
scalar barabasi_100nodes_network.node[2].core_layer 	slots_sent[face$o[18]->node[41]] 	49765800
scalar barabasi_100nodes_network.node[2].core_layer 	slots_sent[face$o[19]->node[45]] 	8091500
scalar barabasi_100nodes_network.node[2].core_layer 	slots_sent[face$o[20]->node[59]] 	8089500
scalar barabasi_100nodes_network.node[2].core_layer 	slots_sent[face$o[21]->node[62]] 	23114400
scalar barabasi_100nodes_network.node[2].core_layer 	slots_sent[face$o[22]->node[79]] 	8081300
scalar barabasi_100nodes_network.node[2].content_store 	p_hit[2] 	0.10575344662427
scalar barabasi_100nodes_network.node[2].content_store 	hits[2] 	601452
scalar barabasi_100nodes_network.node[2].content_store 	misses[2] 	5085852
scalar barabasi_100nodes_network.node[2].content_store 	decision_yes[2] 	5085852
scalar barabasi_100nodes_network.node[2].content_store 	decision_no[2] 	0
scalar barabasi_100nodes_network.node[2].content_store 	decision_ratio[2] 	1
scalar barabasi_100nodes_network.node[3].core_layer 	interests[3] 	260807
scalar barabasi_100nodes_network.node[3].core_layer 	data[3] 	156831
scalar barabasi_100nodes_network.node[3].core_layer 	slots_sent[face$o[1]->client[3]] 	17971500
scalar barabasi_100nodes_network.node[3].core_layer 	slots_sent[face$o[2]->node[2]] 	0
scalar barabasi_100nodes_network.node[3].core_layer 	slots_sent[face$o[3]->node[52]] 	8109200
scalar barabasi_100nodes_network.node[3].content_store 	p_hit[3] 	0.39867028108908
scalar barabasi_100nodes_network.node[3].content_store 	hits[3] 	103976
scalar barabasi_100nodes_network.node[3].content_store 	misses[3] 	156831
scalar barabasi_100nodes_network.node[3].content_store 	decision_yes[3] 	156831
scalar barabasi_100nodes_network.node[3].content_store 	decision_no[3] 	0
scalar barabasi_100nodes_network.node[3].content_store 	decision_ratio[3] 	1
scalar barabasi_100nodes_network.node[4].core_layer 	interests[4] 	573686
scalar barabasi_100nodes_network.node[4].core_layer 	repo_load[4] 	149295
scalar barabasi_100nodes_network.node[4].core_layer 	data[4] 	321169
scalar barabasi_100nodes_network.node[4].core_layer 	slots_sent[face$o[1]->client[4]] 	18054700
scalar barabasi_100nodes_network.node[4].core_layer 	slots_sent[face$o[2]->node[2]] 	0
scalar barabasi_100nodes_network.node[4].core_layer 	slots_sent[face$o[3]->node[27]] 	15569500
scalar barabasi_100nodes_network.node[4].core_layer 	slots_sent[face$o[4]->node[30]] 	15673100
scalar barabasi_100nodes_network.node[4].core_layer 	slots_sent[face$o[5]->node[85]] 	8071300
scalar barabasi_100nodes_network.node[4].content_store 	p_hit[4] 	0.17992769563838
scalar barabasi_100nodes_network.node[4].content_store 	hits[4] 	103222
scalar barabasi_100nodes_network.node[4].content_store 	misses[4] 	470464
scalar barabasi_100nodes_network.node[4].content_store 	decision_yes[4] 	321169
scalar barabasi_100nodes_network.node[4].content_store 	decision_no[4] 	149295
scalar barabasi_100nodes_network.node[4].content_store 	decision_ratio[4] 	0.68266434838797
scalar barabasi_100nodes_network.node[5].core_layer 	interests[5] 	1893686
scalar barabasi_100nodes_network.node[5].core_layer 	data[5] 	1636891
scalar barabasi_100nodes_network.node[5].core_layer 	slots_sent[face$o[1]->client[5]] 	17915300
scalar barabasi_100nodes_network.node[5].core_layer 	slots_sent[face$o[2]->node[0]] 	149999300
scalar barabasi_100nodes_network.node[5].core_layer 	slots_sent[face$o[3]->node[9]] 	5782700
scalar barabasi_100nodes_network.node[5].core_layer 	slots_sent[face$o[4]->node[35]] 	15671300
scalar barabasi_100nodes_network.node[5].content_store 	p_hit[5] 	0.13560590298497
scalar barabasi_100nodes_network.node[5].content_store 	hits[5] 	256795
scalar barabasi_100nodes_network.node[5].content_store 	misses[5] 	1636891
scalar barabasi_100nodes_network.node[5].content_store 	decision_yes[5] 	1636891
scalar barabasi_100nodes_network.node[5].content_store 	decision_no[5] 	0
scalar barabasi_100nodes_network.node[5].content_store 	decision_ratio[5] 	1
scalar barabasi_100nodes_network.node[6].core_layer 	interests[6] 	179567
scalar barabasi_100nodes_network.node[6].core_layer 	data[6] 	80805
scalar barabasi_100nodes_network.node[6].core_layer 	slots_sent[face$o[1]->client[6]] 	17956700
scalar barabasi_100nodes_network.node[6].core_layer 	slots_sent[face$o[2]->node[2]] 	0
scalar barabasi_100nodes_network.node[6].content_store 	p_hit[6] 	0.5500008353428
scalar barabasi_100nodes_network.node[6].content_store 	hits[6] 	98762
scalar barabasi_100nodes_network.node[6].content_store 	misses[6] 	80805
scalar barabasi_100nodes_network.node[6].content_store 	decision_yes[6] 	80805
scalar barabasi_100nodes_network.node[6].content_store 	decision_no[6] 	0
scalar barabasi_100nodes_network.node[6].content_store 	decision_ratio[6] 	1
scalar barabasi_100nodes_network.node[7].core_layer 	interests[7] 	1020696
scalar barabasi_100nodes_network.node[7].core_layer 	data[7] 	869810
scalar barabasi_100nodes_network.node[7].core_layer 	slots_sent[face$o[1]->client[7]] 	18046400
scalar barabasi_100nodes_network.node[7].core_layer 	slots_sent[face$o[2]->node[2]] 	0
scalar barabasi_100nodes_network.node[7].core_layer 	slots_sent[face$o[3]->node[23]] 	47843800
scalar barabasi_100nodes_network.node[7].core_layer 	slots_sent[face$o[4]->node[31]] 	22414100
scalar barabasi_100nodes_network.node[7].core_layer 	slots_sent[face$o[5]->node[49]] 	8036000
scalar barabasi_100nodes_network.node[7].core_layer 	slots_sent[face$o[6]->node[90]] 	5729300
scalar barabasi_100nodes_network.node[7].content_store 	p_hit[7] 	0.14782658107801
scalar barabasi_100nodes_network.node[7].content_store 	hits[7] 	150886
scalar barabasi_100nodes_network.node[7].content_store 	misses[7] 	869810
scalar barabasi_100nodes_network.node[7].content_store 	decision_yes[7] 	869810
scalar barabasi_100nodes_network.node[7].content_store 	decision_no[7] 	0
scalar barabasi_100nodes_network.node[7].content_store 	decision_ratio[7] 	1
scalar barabasi_100nodes_network.node[8].core_layer 	interests[8] 	1822042
scalar barabasi_100nodes_network.node[8].core_layer 	data[8] 	1546112
scalar barabasi_100nodes_network.node[8].core_layer 	slots_sent[face$o[1]->client[8]] 	17954100
scalar barabasi_100nodes_network.node[8].core_layer 	slots_sent[face$o[2]->node[2]] 	112470700
scalar barabasi_100nodes_network.node[8].core_layer 	slots_sent[face$o[3]->node[12]] 	5761500
scalar barabasi_100nodes_network.node[8].core_layer 	slots_sent[face$o[4]->node[14]] 	8128000
scalar barabasi_100nodes_network.node[8].core_layer 	slots_sent[face$o[5]->node[17]] 	8054000
scalar barabasi_100nodes_network.node[8].core_layer 	slots_sent[face$o[6]->node[39]] 	13557300
scalar barabasi_100nodes_network.node[8].core_layer 	slots_sent[face$o[7]->node[61]] 	8148100
scalar barabasi_100nodes_network.node[8].core_layer 	slots_sent[face$o[8]->node[66]] 	8130500
scalar barabasi_100nodes_network.node[8].content_store 	p_hit[8] 	0.15143997778317
scalar barabasi_100nodes_network.node[8].content_store 	hits[8] 	275930
scalar barabasi_100nodes_network.node[8].content_store 	misses[8] 	1546112
scalar barabasi_100nodes_network.node[8].content_store 	decision_yes[8] 	1546112
scalar barabasi_100nodes_network.node[8].content_store 	decision_no[8] 	0
scalar barabasi_100nodes_network.node[8].content_store 	decision_ratio[8] 	1
scalar barabasi_100nodes_network.node[9].core_layer 	interests[9] 	1561693
scalar barabasi_100nodes_network.node[9].core_layer 	repo_load[9] 	1427696
scalar barabasi_100nodes_network.node[9].core_layer 	data[9] 	57827
scalar barabasi_100nodes_network.node[9].core_layer 	slots_sent[face$o[1]->client[9]] 	18035600
scalar barabasi_100nodes_network.node[9].core_layer 	slots_sent[face$o[2]->node[5]] 	138133700
scalar barabasi_100nodes_network.node[9].content_store 	p_hit[9] 	0.048773990790764
scalar barabasi_100nodes_network.node[9].content_store 	hits[9] 	76170
scalar barabasi_100nodes_network.node[9].content_store 	misses[9] 	1485523
scalar barabasi_100nodes_network.node[9].content_store 	decision_yes[9] 	57827
scalar barabasi_100nodes_network.node[9].content_store 	decision_no[9] 	1427696
scalar barabasi_100nodes_network.node[9].content_store 	decision_ratio[9] 	0.038927031086022
scalar barabasi_100nodes_network.node[10].core_layer 	interests[10] 	261449
scalar barabasi_100nodes_network.node[10].core_layer 	data[10] 	157398
scalar barabasi_100nodes_network.node[10].core_layer 	slots_sent[face$o[1]->client[10]] 	17989200
scalar barabasi_100nodes_network.node[10].core_layer 	slots_sent[face$o[2]->node[0]] 	0
scalar barabasi_100nodes_network.node[10].core_layer 	slots_sent[face$o[3]->node[71]] 	8155700
scalar barabasi_100nodes_network.node[10].content_store 	p_hit[10] 	0.39797819077526
scalar barabasi_100nodes_network.node[10].content_store 	hits[10] 	104051
scalar barabasi_100nodes_network.node[10].content_store 	misses[10] 	157398
scalar barabasi_100nodes_network.node[10].content_store 	decision_yes[10] 	157398
scalar barabasi_100nodes_network.node[10].content_store 	decision_no[10] 	0
scalar barabasi_100nodes_network.node[10].content_store 	decision_ratio[10] 	1
scalar barabasi_100nodes_network.node[11].core_layer 	interests[11] 	179076
scalar barabasi_100nodes_network.node[11].core_layer 	data[11] 	80487
scalar barabasi_100nodes_network.node[11].core_layer 	slots_sent[face$o[1]->client[11]] 	17907600
scalar barabasi_100nodes_network.node[11].core_layer 	slots_sent[face$o[2]->node[0]] 	0
scalar barabasi_100nodes_network.node[11].content_store 	p_hit[11] 	0.55054278630302
scalar barabasi_100nodes_network.node[11].content_store 	hits[11] 	98589
scalar barabasi_100nodes_network.node[11].content_store 	misses[11] 	80487
scalar barabasi_100nodes_network.node[11].content_store 	decision_yes[11] 	80487
scalar barabasi_100nodes_network.node[11].content_store 	decision_no[11] 	0
scalar barabasi_100nodes_network.node[11].content_store 	decision_ratio[11] 	1
scalar barabasi_100nodes_network.node[12].core_layer 	interests[12] 	1266452
scalar barabasi_100nodes_network.node[12].core_layer 	repo_load[12] 	1129460
scalar barabasi_100nodes_network.node[12].core_layer 	data[12] 	57615
scalar barabasi_100nodes_network.node[12].core_layer 	slots_sent[face$o[1]->client[12]] 	17964100
scalar barabasi_100nodes_network.node[12].core_layer 	slots_sent[face$o[2]->node[8]] 	108681100
scalar barabasi_100nodes_network.node[12].content_store 	p_hit[12] 	0.062676674678551
scalar barabasi_100nodes_network.node[12].content_store 	hits[12] 	79377
scalar barabasi_100nodes_network.node[12].content_store 	misses[12] 	1187075
scalar barabasi_100nodes_network.node[12].content_store 	decision_yes[12] 	57615
scalar barabasi_100nodes_network.node[12].content_store 	decision_no[12] 	1129460
scalar barabasi_100nodes_network.node[12].content_store 	decision_ratio[12] 	0.048535265252827
scalar barabasi_100nodes_network.node[13].core_layer 	interests[13] 	469851
scalar barabasi_100nodes_network.node[13].core_layer 	data[13] 	352720
scalar barabasi_100nodes_network.node[13].core_layer 	slots_sent[face$o[1]->client[13]] 	17943700
scalar barabasi_100nodes_network.node[13].core_layer 	slots_sent[face$o[2]->node[2]] 	0
scalar barabasi_100nodes_network.node[13].core_layer 	slots_sent[face$o[3]->node[67]] 	8082300
scalar barabasi_100nodes_network.node[13].core_layer 	slots_sent[face$o[4]->node[78]] 	20959100
scalar barabasi_100nodes_network.node[13].content_store 	p_hit[13] 	0.2492939250954
scalar barabasi_100nodes_network.node[13].content_store 	hits[13] 	117131
scalar barabasi_100nodes_network.node[13].content_store 	misses[13] 	352720
scalar barabasi_100nodes_network.node[13].content_store 	decision_yes[13] 	352720
scalar barabasi_100nodes_network.node[13].content_store 	decision_no[13] 	0
scalar barabasi_100nodes_network.node[13].content_store 	decision_ratio[13] 	1
scalar barabasi_100nodes_network.node[14].core_layer 	interests[14] 	180467
scalar barabasi_100nodes_network.node[14].core_layer 	data[14] 	81280
scalar barabasi_100nodes_network.node[14].core_layer 	slots_sent[face$o[1]->client[14]] 	18046700
scalar barabasi_100nodes_network.node[14].core_layer 	slots_sent[face$o[2]->node[8]] 	0
scalar barabasi_100nodes_network.node[14].content_store 	p_hit[14] 	0.54961294862773
scalar barabasi_100nodes_network.node[14].content_store 	hits[14] 	99187
scalar barabasi_100nodes_network.node[14].content_store 	misses[14] 	81280
scalar barabasi_100nodes_network.node[14].content_store 	decision_yes[14] 	81280
scalar barabasi_100nodes_network.node[14].content_store 	decision_no[14] 	0
scalar barabasi_100nodes_network.node[14].content_store 	decision_ratio[14] 	1
scalar barabasi_100nodes_network.node[15].core_layer 	interests[15] 	341674
scalar barabasi_100nodes_network.node[15].core_layer 	data[15] 	229596
scalar barabasi_100nodes_network.node[15].core_layer 	slots_sent[face$o[1]->client[15]] 	17999200
scalar barabasi_100nodes_network.node[15].core_layer 	slots_sent[face$o[2]->node[0]] 	0
scalar barabasi_100nodes_network.node[15].core_layer 	slots_sent[face$o[3]->node[40]] 	8092000
scalar barabasi_100nodes_network.node[15].core_layer 	slots_sent[face$o[4]->node[56]] 	8076200
scalar barabasi_100nodes_network.node[15].content_store 	p_hit[15] 	0.32802613017086
scalar barabasi_100nodes_network.node[15].content_store 	hits[15] 	112078
scalar barabasi_100nodes_network.node[15].content_store 	misses[15] 	229596
scalar barabasi_100nodes_network.node[15].content_store 	decision_yes[15] 	229596
scalar barabasi_100nodes_network.node[15].content_store 	decision_no[15] 	0
scalar barabasi_100nodes_network.node[15].content_store 	decision_ratio[15] 	1
scalar barabasi_100nodes_network.node[16].core_layer 	interests[16] 	635884
scalar barabasi_100nodes_network.node[16].core_layer 	data[16] 	516027
scalar barabasi_100nodes_network.node[16].core_layer 	slots_sent[face$o[1]->client[16]] 	17995800
scalar barabasi_100nodes_network.node[16].core_layer 	slots_sent[face$o[2]->node[2]] 	0
scalar barabasi_100nodes_network.node[16].core_layer 	slots_sent[face$o[3]->node[19]] 	37495400
scalar barabasi_100nodes_network.node[16].core_layer 	slots_sent[face$o[4]->node[20]] 	8097200
scalar barabasi_100nodes_network.node[16].content_store 	p_hit[16] 	0.18848878097263
scalar barabasi_100nodes_network.node[16].content_store 	hits[16] 	119857
scalar barabasi_100nodes_network.node[16].content_store 	misses[16] 	516027
scalar barabasi_100nodes_network.node[16].content_store 	decision_yes[16] 	516027
scalar barabasi_100nodes_network.node[16].content_store 	decision_no[16] 	0
scalar barabasi_100nodes_network.node[16].content_store 	decision_ratio[16] 	1
scalar barabasi_100nodes_network.node[17].core_layer 	interests[17] 	179551
scalar barabasi_100nodes_network.node[17].core_layer 	data[17] 	80540
scalar barabasi_100nodes_network.node[17].core_layer 	slots_sent[face$o[1]->client[17]] 	17955100
scalar barabasi_100nodes_network.node[17].core_layer 	slots_sent[face$o[2]->node[8]] 	0
scalar barabasi_100nodes_network.node[17].content_store 	p_hit[17] 	0.55143663917216
scalar barabasi_100nodes_network.node[17].content_store 	hits[17] 	99011
scalar barabasi_100nodes_network.node[17].content_store 	misses[17] 	80540
scalar barabasi_100nodes_network.node[17].content_store 	decision_yes[17] 	80540
scalar barabasi_100nodes_network.node[17].content_store 	decision_no[17] 	0
scalar barabasi_100nodes_network.node[17].content_store 	decision_ratio[17] 	1
scalar barabasi_100nodes_network.node[18].core_layer 	interests[18] 	1875510
scalar barabasi_100nodes_network.node[18].core_layer 	data[18] 	1566862
scalar barabasi_100nodes_network.node[18].core_layer 	slots_sent[face$o[1]->client[18]] 	18039100
scalar barabasi_100nodes_network.node[18].core_layer 	slots_sent[face$o[2]->node[2]] 	147575800
scalar barabasi_100nodes_network.node[18].core_layer 	slots_sent[face$o[3]->node[53]] 	8077600
scalar barabasi_100nodes_network.node[18].core_layer 	slots_sent[face$o[4]->node[68]] 	8087300
scalar barabasi_100nodes_network.node[18].core_layer 	slots_sent[face$o[5]->node[72]] 	5771200
scalar barabasi_100nodes_network.node[18].content_store 	p_hit[18] 	0.1645675043055
scalar barabasi_100nodes_network.node[18].content_store 	hits[18] 	308648
scalar barabasi_100nodes_network.node[18].content_store 	misses[18] 	1566862
scalar barabasi_100nodes_network.node[18].content_store 	decision_yes[18] 	1566862
scalar barabasi_100nodes_network.node[18].content_store 	decision_no[18] 	0
scalar barabasi_100nodes_network.node[18].content_store 	decision_ratio[18] 	1
scalar barabasi_100nodes_network.node[19].core_layer 	interests[19] 	503817
scalar barabasi_100nodes_network.node[19].core_layer 	data[19] 	374954
scalar barabasi_100nodes_network.node[19].core_layer 	slots_sent[face$o[1]->client[19]] 	17969900
scalar barabasi_100nodes_network.node[19].core_layer 	slots_sent[face$o[2]->node[16]] 	0
scalar barabasi_100nodes_network.node[19].core_layer 	slots_sent[face$o[3]->node[63]] 	8097400
scalar barabasi_100nodes_network.node[19].core_layer 	slots_sent[face$o[4]->node[70]] 	8120100
scalar barabasi_100nodes_network.node[19].core_layer 	slots_sent[face$o[5]->node[80]] 	8118700
scalar barabasi_100nodes_network.node[19].core_layer 	slots_sent[face$o[6]->node[89]] 	8075600
scalar barabasi_100nodes_network.node[19].content_store 	p_hit[19] 	0.25577342566845
scalar barabasi_100nodes_network.node[19].content_store 	hits[19] 	128863
scalar barabasi_100nodes_network.node[19].content_store 	misses[19] 	374954
scalar barabasi_100nodes_network.node[19].content_store 	decision_yes[19] 	374954
scalar barabasi_100nodes_network.node[19].content_store 	decision_no[19] 	0
scalar barabasi_100nodes_network.node[19].content_store 	decision_ratio[19] 	1
scalar barabasi_100nodes_network.node[20].core_layer 	interests[20] 	179447
scalar barabasi_100nodes_network.node[20].core_layer 	data[20] 	80972
scalar barabasi_100nodes_network.node[20].core_layer 	slots_sent[face$o[1]->client[20]] 	17944700
scalar barabasi_100nodes_network.node[20].core_layer 	slots_sent[face$o[2]->node[16]] 	0
scalar barabasi_100nodes_network.node[20].content_store 	p_hit[20] 	0.5487692744933
scalar barabasi_100nodes_network.node[20].content_store 	hits[20] 	98475
scalar barabasi_100nodes_network.node[20].content_store 	misses[20] 	80972
scalar barabasi_100nodes_network.node[20].content_store 	decision_yes[20] 	80972
scalar barabasi_100nodes_network.node[20].content_store 	decision_no[20] 	0
scalar barabasi_100nodes_network.node[20].content_store 	decision_ratio[20] 	1
scalar barabasi_100nodes_network.node[21].core_layer 	interests[21] 	318235
scalar barabasi_100nodes_network.node[21].core_layer 	data[21] 	208864
scalar barabasi_100nodes_network.node[21].core_layer 	slots_sent[face$o[1]->client[21]] 	18031100
scalar barabasi_100nodes_network.node[21].core_layer 	slots_sent[face$o[2]->node[0]] 	0
scalar barabasi_100nodes_network.node[21].core_layer 	slots_sent[face$o[3]->node[24]] 	8084100
scalar barabasi_100nodes_network.node[21].core_layer 	slots_sent[face$o[4]->node[57]] 	5708300
scalar barabasi_100nodes_network.node[21].content_store 	p_hit[21] 	0.34367998491681
scalar barabasi_100nodes_network.node[21].content_store 	hits[21] 	109371
scalar barabasi_100nodes_network.node[21].content_store 	misses[21] 	208864
scalar barabasi_100nodes_network.node[21].content_store 	decision_yes[21] 	208864
scalar barabasi_100nodes_network.node[21].content_store 	decision_no[21] 	0
scalar barabasi_100nodes_network.node[21].content_store 	decision_ratio[21] 	1
scalar barabasi_100nodes_network.node[22].core_layer 	interests[22] 	180675
scalar barabasi_100nodes_network.node[22].core_layer 	data[22] 	81338
scalar barabasi_100nodes_network.node[22].core_layer 	slots_sent[face$o[1]->client[22]] 	18067500
scalar barabasi_100nodes_network.node[22].core_layer 	slots_sent[face$o[2]->node[0]] 	0
scalar barabasi_100nodes_network.node[22].content_store 	p_hit[22] 	0.5498104330981
scalar barabasi_100nodes_network.node[22].content_store 	hits[22] 	99337
scalar barabasi_100nodes_network.node[22].content_store 	misses[22] 	81338
scalar barabasi_100nodes_network.node[22].content_store 	decision_yes[22] 	81338
scalar barabasi_100nodes_network.node[22].content_store 	decision_no[22] 	0
scalar barabasi_100nodes_network.node[22].content_store 	decision_ratio[22] 	1
scalar barabasi_100nodes_network.node[23].core_layer 	interests[23] 	616392
scalar barabasi_100nodes_network.node[23].core_layer 	data[23] 	478438
scalar barabasi_100nodes_network.node[23].core_layer 	slots_sent[face$o[1]->client[23]] 	17995600
scalar barabasi_100nodes_network.node[23].core_layer 	slots_sent[face$o[2]->node[7]] 	0
scalar barabasi_100nodes_network.node[23].core_layer 	slots_sent[face$o[3]->node[46]] 	11225600
scalar barabasi_100nodes_network.node[23].core_layer 	slots_sent[face$o[4]->node[47]] 	8093300
scalar barabasi_100nodes_network.node[23].core_layer 	slots_sent[face$o[5]->node[51]] 	8104300
scalar barabasi_100nodes_network.node[23].core_layer 	slots_sent[face$o[6]->node[83]] 	8101500
scalar barabasi_100nodes_network.node[23].core_layer 	slots_sent[face$o[7]->node[86]] 	8118900
scalar barabasi_100nodes_network.node[23].content_store 	p_hit[23] 	0.22380887487183
scalar barabasi_100nodes_network.node[23].content_store 	hits[23] 	137954
scalar barabasi_100nodes_network.node[23].content_store 	misses[23] 	478438
scalar barabasi_100nodes_network.node[23].content_store 	decision_yes[23] 	478438
scalar barabasi_100nodes_network.node[23].content_store 	decision_no[23] 	0
scalar barabasi_100nodes_network.node[23].content_store 	decision_ratio[23] 	1
scalar barabasi_100nodes_network.node[24].core_layer 	interests[24] 	179947
scalar barabasi_100nodes_network.node[24].core_layer 	data[24] 	80841
scalar barabasi_100nodes_network.node[24].core_layer 	slots_sent[face$o[1]->client[24]] 	17994700
scalar barabasi_100nodes_network.node[24].core_layer 	slots_sent[face$o[2]->node[21]] 	0
scalar barabasi_100nodes_network.node[24].content_store 	p_hit[24] 	0.55075105447715
scalar barabasi_100nodes_network.node[24].content_store 	hits[24] 	99106
scalar barabasi_100nodes_network.node[24].content_store 	misses[24] 	80841
scalar barabasi_100nodes_network.node[24].content_store 	decision_yes[24] 	80841
scalar barabasi_100nodes_network.node[24].content_store 	decision_no[24] 	0
scalar barabasi_100nodes_network.node[24].content_store 	decision_ratio[24] 	1
scalar barabasi_100nodes_network.node[25].core_layer 	interests[25] 	261113
scalar barabasi_100nodes_network.node[25].core_layer 	data[25] 	156531
scalar barabasi_100nodes_network.node[25].core_layer 	slots_sent[face$o[1]->client[25]] 	18041600
scalar barabasi_100nodes_network.node[25].core_layer 	slots_sent[face$o[2]->node[2]] 	0
scalar barabasi_100nodes_network.node[25].core_layer 	slots_sent[face$o[3]->node[38]] 	8069700
scalar barabasi_100nodes_network.node[25].content_store 	p_hit[25] 	0.40052391110362
scalar barabasi_100nodes_network.node[25].content_store 	hits[25] 	104582
scalar barabasi_100nodes_network.node[25].content_store 	misses[25] 	156531
scalar barabasi_100nodes_network.node[25].content_store 	decision_yes[25] 	156531
scalar barabasi_100nodes_network.node[25].content_store 	decision_no[25] 	0
scalar barabasi_100nodes_network.node[25].content_store 	decision_ratio[25] 	1
scalar barabasi_100nodes_network.node[26].core_layer 	interests[26] 	372724
scalar barabasi_100nodes_network.node[26].core_layer 	data[26] 	261621
scalar barabasi_100nodes_network.node[26].core_layer 	slots_sent[face$o[1]->client[26]] 	17977300
scalar barabasi_100nodes_network.node[26].core_layer 	slots_sent[face$o[2]->node[2]] 	0
scalar barabasi_100nodes_network.node[26].core_layer 	slots_sent[face$o[3]->node[77]] 	11231800
scalar barabasi_100nodes_network.node[26].core_layer 	slots_sent[face$o[4]->node[91]] 	8063300
scalar barabasi_100nodes_network.node[26].content_store 	p_hit[26] 	0.29808383683369
scalar barabasi_100nodes_network.node[26].content_store 	hits[26] 	111103
scalar barabasi_100nodes_network.node[26].content_store 	misses[26] 	261621
scalar barabasi_100nodes_network.node[26].content_store 	decision_yes[26] 	261621
scalar barabasi_100nodes_network.node[26].content_store 	decision_no[26] 	0
scalar barabasi_100nodes_network.node[26].content_store 	decision_ratio[26] 	1
scalar barabasi_100nodes_network.node[27].core_layer 	interests[27] 	260388
scalar barabasi_100nodes_network.node[27].core_layer 	data[27] 	155695
scalar barabasi_100nodes_network.node[27].core_layer 	slots_sent[face$o[1]->client[27]] 	17950100
scalar barabasi_100nodes_network.node[27].core_layer 	slots_sent[face$o[2]->node[4]] 	0
scalar barabasi_100nodes_network.node[27].core_layer 	slots_sent[face$o[3]->node[99]] 	8088700
scalar barabasi_100nodes_network.node[27].content_store 	p_hit[27] 	0.40206537935696
scalar barabasi_100nodes_network.node[27].content_store 	hits[27] 	104693
scalar barabasi_100nodes_network.node[27].content_store 	misses[27] 	155695
scalar barabasi_100nodes_network.node[27].content_store 	decision_yes[27] 	155695
scalar barabasi_100nodes_network.node[27].content_store 	decision_no[27] 	0
scalar barabasi_100nodes_network.node[27].content_store 	decision_ratio[27] 	1
scalar barabasi_100nodes_network.node[28].core_layer 	interests[28] 	180474
scalar barabasi_100nodes_network.node[28].core_layer 	data[28] 	81160
scalar barabasi_100nodes_network.node[28].core_layer 	slots_sent[face$o[1]->client[28]] 	18047400
scalar barabasi_100nodes_network.node[28].core_layer 	slots_sent[face$o[2]->node[0]] 	0
scalar barabasi_100nodes_network.node[28].content_store 	p_hit[28] 	0.55029533339982
scalar barabasi_100nodes_network.node[28].content_store 	hits[28] 	99314
scalar barabasi_100nodes_network.node[28].content_store 	misses[28] 	81160
scalar barabasi_100nodes_network.node[28].content_store 	decision_yes[28] 	81160
scalar barabasi_100nodes_network.node[28].content_store 	decision_no[28] 	0
scalar barabasi_100nodes_network.node[28].content_store 	decision_ratio[28] 	1
scalar barabasi_100nodes_network.node[29].core_layer 	interests[29] 	179590
scalar barabasi_100nodes_network.node[29].core_layer 	data[29] 	80452
scalar barabasi_100nodes_network.node[29].core_layer 	slots_sent[face$o[1]->client[29]] 	17959000
scalar barabasi_100nodes_network.node[29].core_layer 	slots_sent[face$o[2]->node[2]] 	0
scalar barabasi_100nodes_network.node[29].content_store 	p_hit[29] 	0.55202405479147
scalar barabasi_100nodes_network.node[29].content_store 	hits[29] 	99138
scalar barabasi_100nodes_network.node[29].content_store 	misses[29] 	80452
scalar barabasi_100nodes_network.node[29].content_store 	decision_yes[29] 	80452
scalar barabasi_100nodes_network.node[29].content_store 	decision_no[29] 	0
scalar barabasi_100nodes_network.node[29].content_store 	decision_ratio[29] 	1
scalar barabasi_100nodes_network.node[30].core_layer 	interests[30] 	261041
scalar barabasi_100nodes_network.node[30].core_layer 	data[30] 	156731
scalar barabasi_100nodes_network.node[30].core_layer 	slots_sent[face$o[1]->client[30]] 	18000500
scalar barabasi_100nodes_network.node[30].core_layer 	slots_sent[face$o[2]->node[4]] 	0
scalar barabasi_100nodes_network.node[30].core_layer 	slots_sent[face$o[3]->node[88]] 	8103600
scalar barabasi_100nodes_network.node[30].content_store 	p_hit[30] 	0.39959240119368
scalar barabasi_100nodes_network.node[30].content_store 	hits[30] 	104310
scalar barabasi_100nodes_network.node[30].content_store 	misses[30] 	156731
scalar barabasi_100nodes_network.node[30].content_store 	decision_yes[30] 	156731
scalar barabasi_100nodes_network.node[30].content_store 	decision_no[30] 	0
scalar barabasi_100nodes_network.node[30].content_store 	decision_ratio[30] 	1
scalar barabasi_100nodes_network.node[31].core_layer 	interests[31] 	326702
scalar barabasi_100nodes_network.node[31].core_layer 	data[31] 	224141
scalar barabasi_100nodes_network.node[31].core_layer 	slots_sent[face$o[1]->client[31]] 	18025200
scalar barabasi_100nodes_network.node[31].core_layer 	slots_sent[face$o[2]->node[7]] 	0
scalar barabasi_100nodes_network.node[31].core_layer 	slots_sent[face$o[3]->node[65]] 	14645000
scalar barabasi_100nodes_network.node[31].content_store 	p_hit[31] 	0.31392828938911
scalar barabasi_100nodes_network.node[31].content_store 	hits[31] 	102561
scalar barabasi_100nodes_network.node[31].content_store 	misses[31] 	224141
scalar barabasi_100nodes_network.node[31].content_store 	decision_yes[31] 	224141
scalar barabasi_100nodes_network.node[31].content_store 	decision_no[31] 	0
scalar barabasi_100nodes_network.node[31].content_store 	decision_ratio[31] 	1
scalar barabasi_100nodes_network.node[32].core_layer 	interests[32] 	342651
scalar barabasi_100nodes_network.node[32].core_layer 	data[32] 	230038
scalar barabasi_100nodes_network.node[32].core_layer 	slots_sent[face$o[1]->client[32]] 	18041600
scalar barabasi_100nodes_network.node[32].core_layer 	slots_sent[face$o[2]->node[2]] 	0
scalar barabasi_100nodes_network.node[32].core_layer 	slots_sent[face$o[3]->node[43]] 	8082400
scalar barabasi_100nodes_network.node[32].core_layer 	slots_sent[face$o[4]->node[64]] 	8141100
scalar barabasi_100nodes_network.node[32].content_store 	p_hit[32] 	0.32865218545984
scalar barabasi_100nodes_network.node[32].content_store 	hits[32] 	112613
scalar barabasi_100nodes_network.node[32].content_store 	misses[32] 	230038
scalar barabasi_100nodes_network.node[32].content_store 	decision_yes[32] 	230038
scalar barabasi_100nodes_network.node[32].content_store 	decision_no[32] 	0
scalar barabasi_100nodes_network.node[32].content_store 	decision_ratio[32] 	1
scalar barabasi_100nodes_network.node[33].core_layer 	interests[33] 	179638
scalar barabasi_100nodes_network.node[33].core_layer 	data[33] 	80913
scalar barabasi_100nodes_network.node[33].core_layer 	slots_sent[face$o[1]->client[33]] 	17963800
scalar barabasi_100nodes_network.node[33].core_layer 	slots_sent[face$o[2]->node[2]] 	0
scalar barabasi_100nodes_network.node[33].content_store 	p_hit[33] 	0.54957748360592
scalar barabasi_100nodes_network.node[33].content_store 	hits[33] 	98725
scalar barabasi_100nodes_network.node[33].content_store 	misses[33] 	80913
scalar barabasi_100nodes_network.node[33].content_store 	decision_yes[33] 	80913
scalar barabasi_100nodes_network.node[33].content_store 	decision_no[33] 	0
scalar barabasi_100nodes_network.node[33].content_store 	decision_ratio[33] 	1
scalar barabasi_100nodes_network.node[34].core_layer 	interests[34] 	180089
scalar barabasi_100nodes_network.node[34].core_layer 	data[34] 	80883
scalar barabasi_100nodes_network.node[34].core_layer 	slots_sent[face$o[1]->client[34]] 	18008900
scalar barabasi_100nodes_network.node[34].core_layer 	slots_sent[face$o[2]->node[2]] 	0
scalar barabasi_100nodes_network.node[34].content_store 	p_hit[34] 	0.55087206881042
scalar barabasi_100nodes_network.node[34].content_store 	hits[34] 	99206
scalar barabasi_100nodes_network.node[34].content_store 	misses[34] 	80883
scalar barabasi_100nodes_network.node[34].content_store 	decision_yes[34] 	80883
scalar barabasi_100nodes_network.node[34].content_store 	decision_no[34] 	0
scalar barabasi_100nodes_network.node[34].content_store 	decision_ratio[34] 	1
scalar barabasi_100nodes_network.node[35].core_layer 	interests[35] 	261337
scalar barabasi_100nodes_network.node[35].core_layer 	data[35] 	156713
scalar barabasi_100nodes_network.node[35].core_layer 	slots_sent[face$o[1]->client[35]] 	18032000
scalar barabasi_100nodes_network.node[35].core_layer 	slots_sent[face$o[2]->node[5]] 	0
scalar barabasi_100nodes_network.node[35].core_layer 	slots_sent[face$o[3]->node[50]] 	8101700
scalar barabasi_100nodes_network.node[35].content_store 	p_hit[35] 	0.40034132174166
scalar barabasi_100nodes_network.node[35].content_store 	hits[35] 	104624
scalar barabasi_100nodes_network.node[35].content_store 	misses[35] 	156713
scalar barabasi_100nodes_network.node[35].content_store 	decision_yes[35] 	156713
scalar barabasi_100nodes_network.node[35].content_store 	decision_no[35] 	0
scalar barabasi_100nodes_network.node[35].content_store 	decision_ratio[35] 	1
scalar barabasi_100nodes_network.node[36].core_layer 	interests[36] 	261000
scalar barabasi_100nodes_network.node[36].core_layer 	data[36] 	156370
scalar barabasi_100nodes_network.node[36].core_layer 	slots_sent[face$o[1]->client[36]] 	17985600
scalar barabasi_100nodes_network.node[36].core_layer 	slots_sent[face$o[2]->node[2]] 	0
scalar barabasi_100nodes_network.node[36].core_layer 	slots_sent[face$o[3]->node[75]] 	8114400
scalar barabasi_100nodes_network.node[36].content_store 	p_hit[36] 	0.40088122605364
scalar barabasi_100nodes_network.node[36].content_store 	hits[36] 	104630
scalar barabasi_100nodes_network.node[36].content_store 	misses[36] 	156370
scalar barabasi_100nodes_network.node[36].content_store 	decision_yes[36] 	156370
scalar barabasi_100nodes_network.node[36].content_store 	decision_no[36] 	0
scalar barabasi_100nodes_network.node[36].content_store 	decision_ratio[36] 	1
scalar barabasi_100nodes_network.node[37].core_layer 	interests[37] 	1698601
scalar barabasi_100nodes_network.node[37].core_layer 	repo_load[37] 	1559515
scalar barabasi_100nodes_network.node[37].core_layer 	data[37] 	57491
scalar barabasi_100nodes_network.node[37].core_layer 	slots_sent[face$o[1]->client[37]] 	17950500
scalar barabasi_100nodes_network.node[37].core_layer 	slots_sent[face$o[2]->node[0]] 	151909600
scalar barabasi_100nodes_network.node[37].content_store 	p_hit[37] 	0.048036590111509
scalar barabasi_100nodes_network.node[37].content_store 	hits[37] 	81595
scalar barabasi_100nodes_network.node[37].content_store 	misses[37] 	1617006
scalar barabasi_100nodes_network.node[37].content_store 	decision_yes[37] 	57491
scalar barabasi_100nodes_network.node[37].content_store 	decision_no[37] 	1559515
scalar barabasi_100nodes_network.node[37].content_store 	decision_ratio[37] 	0.035553980628396
scalar barabasi_100nodes_network.node[38].core_layer 	interests[38] 	179568
scalar barabasi_100nodes_network.node[38].core_layer 	data[38] 	80697
scalar barabasi_100nodes_network.node[38].core_layer 	slots_sent[face$o[1]->client[38]] 	17956800
scalar barabasi_100nodes_network.node[38].core_layer 	slots_sent[face$o[2]->node[25]] 	0
scalar barabasi_100nodes_network.node[38].content_store 	p_hit[38] 	0.55060478481689
scalar barabasi_100nodes_network.node[38].content_store 	hits[38] 	98871
scalar barabasi_100nodes_network.node[38].content_store 	misses[38] 	80697
scalar barabasi_100nodes_network.node[38].content_store 	decision_yes[38] 	80697
scalar barabasi_100nodes_network.node[38].content_store 	decision_no[38] 	0
scalar barabasi_100nodes_network.node[38].content_store 	decision_ratio[38] 	1
scalar barabasi_100nodes_network.node[39].core_layer 	interests[39] 	237178
scalar barabasi_100nodes_network.node[39].core_layer 	data[39] 	135573
scalar barabasi_100nodes_network.node[39].core_layer 	slots_sent[face$o[1]->client[39]] 	17939100
scalar barabasi_100nodes_network.node[39].core_layer 	slots_sent[face$o[2]->node[8]] 	0
scalar barabasi_100nodes_network.node[39].core_layer 	slots_sent[face$o[3]->node[60]] 	5778700
scalar barabasi_100nodes_network.node[39].content_store 	p_hit[39] 	0.4283913347781
scalar barabasi_100nodes_network.node[39].content_store 	hits[39] 	101605
scalar barabasi_100nodes_network.node[39].content_store 	misses[39] 	135573
scalar barabasi_100nodes_network.node[39].content_store 	decision_yes[39] 	135573
scalar barabasi_100nodes_network.node[39].content_store 	decision_no[39] 	0
scalar barabasi_100nodes_network.node[39].content_store 	decision_ratio[39] 	1
scalar barabasi_100nodes_network.node[40].core_layer 	interests[40] 	180079
scalar barabasi_100nodes_network.node[40].core_layer 	data[40] 	80920
scalar barabasi_100nodes_network.node[40].core_layer 	slots_sent[face$o[1]->client[40]] 	18007900
scalar barabasi_100nodes_network.node[40].core_layer 	slots_sent[face$o[2]->node[15]] 	0
scalar barabasi_100nodes_network.node[40].content_store 	p_hit[40] 	0.55064166282576
scalar barabasi_100nodes_network.node[40].content_store 	hits[40] 	99159
scalar barabasi_100nodes_network.node[40].content_store 	misses[40] 	80920
scalar barabasi_100nodes_network.node[40].content_store 	decision_yes[40] 	80920
scalar barabasi_100nodes_network.node[40].content_store 	decision_no[40] 	0
scalar barabasi_100nodes_network.node[40].content_store 	decision_ratio[40] 	1
scalar barabasi_100nodes_network.node[41].core_layer 	interests[41] 	636627
scalar barabasi_100nodes_network.node[41].core_layer 	data[41] 	497658
scalar barabasi_100nodes_network.node[41].core_layer 	slots_sent[face$o[1]->client[41]] 	17946500
scalar barabasi_100nodes_network.node[41].core_layer 	slots_sent[face$o[2]->node[2]] 	0
scalar barabasi_100nodes_network.node[41].core_layer 	slots_sent[face$o[3]->node[42]] 	8057200
scalar barabasi_100nodes_network.node[41].core_layer 	slots_sent[face$o[4]->node[48]] 	8183500
scalar barabasi_100nodes_network.node[41].core_layer 	slots_sent[face$o[5]->node[54]] 	15641000
scalar barabasi_100nodes_network.node[41].core_layer 	slots_sent[face$o[6]->node[55]] 	5783900
scalar barabasi_100nodes_network.node[41].core_layer 	slots_sent[face$o[7]->node[69]] 	8050600
scalar barabasi_100nodes_network.node[41].content_store 	p_hit[41] 	0.21828951646726
scalar barabasi_100nodes_network.node[41].content_store 	hits[41] 	138969
scalar barabasi_100nodes_network.node[41].content_store 	misses[41] 	497658
scalar barabasi_100nodes_network.node[41].content_store 	decision_yes[41] 	497658
scalar barabasi_100nodes_network.node[41].content_store 	decision_no[41] 	0
scalar barabasi_100nodes_network.node[41].content_store 	decision_ratio[41] 	1
scalar barabasi_100nodes_network.node[42].core_layer 	interests[42] 	179657
scalar barabasi_100nodes_network.node[42].core_layer 	data[42] 	80572
scalar barabasi_100nodes_network.node[42].core_layer 	slots_sent[face$o[1]->client[42]] 	17965700
scalar barabasi_100nodes_network.node[42].core_layer 	slots_sent[face$o[2]->node[41]] 	0
scalar barabasi_100nodes_network.node[42].content_store 	p_hit[42] 	0.55152318028243
scalar barabasi_100nodes_network.node[42].content_store 	hits[42] 	99085
scalar barabasi_100nodes_network.node[42].content_store 	misses[42] 	80572
scalar barabasi_100nodes_network.node[42].content_store 	decision_yes[42] 	80572
scalar barabasi_100nodes_network.node[42].content_store 	decision_no[42] 	0
scalar barabasi_100nodes_network.node[42].content_store 	decision_ratio[42] 	1
scalar barabasi_100nodes_network.node[43].core_layer 	interests[43] 	179807
scalar barabasi_100nodes_network.node[43].core_layer 	data[43] 	80824
scalar barabasi_100nodes_network.node[43].core_layer 	slots_sent[face$o[1]->client[43]] 	17980700
scalar barabasi_100nodes_network.node[43].core_layer 	slots_sent[face$o[2]->node[32]] 	0
scalar barabasi_100nodes_network.node[43].content_store 	p_hit[43] 	0.55049580939563
scalar barabasi_100nodes_network.node[43].content_store 	hits[43] 	98983
scalar barabasi_100nodes_network.node[43].content_store 	misses[43] 	80824
scalar barabasi_100nodes_network.node[43].content_store 	decision_yes[43] 	80824
scalar barabasi_100nodes_network.node[43].content_store 	decision_no[43] 	0
scalar barabasi_100nodes_network.node[43].content_store 	decision_ratio[43] 	1
scalar barabasi_100nodes_network.node[44].core_layer 	interests[44] 	180082
scalar barabasi_100nodes_network.node[44].core_layer 	data[44] 	80893
scalar barabasi_100nodes_network.node[44].core_layer 	slots_sent[face$o[1]->client[44]] 	18008200
scalar barabasi_100nodes_network.node[44].core_layer 	slots_sent[face$o[2]->node[0]] 	0
scalar barabasi_100nodes_network.node[44].content_store 	p_hit[44] 	0.55079908041892
scalar barabasi_100nodes_network.node[44].content_store 	hits[44] 	99189
scalar barabasi_100nodes_network.node[44].content_store 	misses[44] 	80893
scalar barabasi_100nodes_network.node[44].content_store 	decision_yes[44] 	80893
scalar barabasi_100nodes_network.node[44].content_store 	decision_no[44] 	0
scalar barabasi_100nodes_network.node[44].content_store 	decision_ratio[44] 	1
scalar barabasi_100nodes_network.node[45].core_layer 	interests[45] 	180053
scalar barabasi_100nodes_network.node[45].core_layer 	data[45] 	80915
scalar barabasi_100nodes_network.node[45].core_layer 	slots_sent[face$o[1]->client[45]] 	18005300
scalar barabasi_100nodes_network.node[45].core_layer 	slots_sent[face$o[2]->node[2]] 	0
scalar barabasi_100nodes_network.node[45].content_store 	p_hit[45] 	0.55060454421754
scalar barabasi_100nodes_network.node[45].content_store 	hits[45] 	99138
scalar barabasi_100nodes_network.node[45].content_store 	misses[45] 	80915
scalar barabasi_100nodes_network.node[45].content_store 	decision_yes[45] 	80915
scalar barabasi_100nodes_network.node[45].content_store 	decision_no[45] 	0
scalar barabasi_100nodes_network.node[45].content_store 	decision_ratio[45] 	1
scalar barabasi_100nodes_network.node[46].core_layer 	interests[46] 	260506
scalar barabasi_100nodes_network.node[46].core_layer 	repo_load[46] 	60641
scalar barabasi_100nodes_network.node[46].core_layer 	data[46] 	112256
scalar barabasi_100nodes_network.node[46].core_layer 	slots_sent[face$o[1]->client[46]] 	17956200
scalar barabasi_100nodes_network.node[46].core_layer 	slots_sent[face$o[2]->node[23]] 	0
scalar barabasi_100nodes_network.node[46].core_layer 	slots_sent[face$o[3]->node[82]] 	8094400
scalar barabasi_100nodes_network.node[46].content_store 	p_hit[46] 	0.33630319455214
scalar barabasi_100nodes_network.node[46].content_store 	hits[46] 	87609
scalar barabasi_100nodes_network.node[46].content_store 	misses[46] 	172897
scalar barabasi_100nodes_network.node[46].content_store 	decision_yes[46] 	112256
scalar barabasi_100nodes_network.node[46].content_store 	decision_no[46] 	60641
scalar barabasi_100nodes_network.node[46].content_store 	decision_ratio[46] 	0.64926516943614
scalar barabasi_100nodes_network.node[47].core_layer 	interests[47] 	179759
scalar barabasi_100nodes_network.node[47].core_layer 	data[47] 	80933
scalar barabasi_100nodes_network.node[47].core_layer 	slots_sent[face$o[1]->client[47]] 	17975900
scalar barabasi_100nodes_network.node[47].core_layer 	slots_sent[face$o[2]->node[23]] 	0
scalar barabasi_100nodes_network.node[47].content_store 	p_hit[47] 	0.54976941349251
scalar barabasi_100nodes_network.node[47].content_store 	hits[47] 	98826
scalar barabasi_100nodes_network.node[47].content_store 	misses[47] 	80933
scalar barabasi_100nodes_network.node[47].content_store 	decision_yes[47] 	80933
scalar barabasi_100nodes_network.node[47].content_store 	decision_no[47] 	0
scalar barabasi_100nodes_network.node[47].content_store 	decision_ratio[47] 	1
scalar barabasi_100nodes_network.node[48].core_layer 	interests[48] 	180708
scalar barabasi_100nodes_network.node[48].core_layer 	data[48] 	81835
scalar barabasi_100nodes_network.node[48].core_layer 	slots_sent[face$o[1]->client[48]] 	18070800
scalar barabasi_100nodes_network.node[48].core_layer 	slots_sent[face$o[2]->node[41]] 	0
scalar barabasi_100nodes_network.node[48].content_store 	p_hit[48] 	0.54714235119641
scalar barabasi_100nodes_network.node[48].content_store 	hits[48] 	98873
scalar barabasi_100nodes_network.node[48].content_store 	misses[48] 	81835
scalar barabasi_100nodes_network.node[48].content_store 	decision_yes[48] 	81835
scalar barabasi_100nodes_network.node[48].content_store 	decision_no[48] 	0
scalar barabasi_100nodes_network.node[48].content_store 	decision_ratio[48] 	1
scalar barabasi_100nodes_network.node[49].core_layer 	interests[49] 	179540
scalar barabasi_100nodes_network.node[49].core_layer 	data[49] 	80360
scalar barabasi_100nodes_network.node[49].core_layer 	slots_sent[face$o[1]->client[49]] 	17954000
scalar barabasi_100nodes_network.node[49].core_layer 	slots_sent[face$o[2]->node[7]] 	0
scalar barabasi_100nodes_network.node[49].content_store 	p_hit[49] 	0.55241171883703
scalar barabasi_100nodes_network.node[49].content_store 	hits[49] 	99180
scalar barabasi_100nodes_network.node[49].content_store 	misses[49] 	80360
scalar barabasi_100nodes_network.node[49].content_store 	decision_yes[49] 	80360
scalar barabasi_100nodes_network.node[49].content_store 	decision_no[49] 	0
scalar barabasi_100nodes_network.node[49].content_store 	decision_ratio[49] 	1
scalar barabasi_100nodes_network.node[50].core_layer 	interests[50] 	179977
scalar barabasi_100nodes_network.node[50].core_layer 	data[50] 	81017
scalar barabasi_100nodes_network.node[50].core_layer 	slots_sent[face$o[1]->client[50]] 	17997700
scalar barabasi_100nodes_network.node[50].core_layer 	slots_sent[face$o[2]->node[35]] 	0
scalar barabasi_100nodes_network.node[50].content_store 	p_hit[50] 	0.54984803613795
scalar barabasi_100nodes_network.node[50].content_store 	hits[50] 	98960
scalar barabasi_100nodes_network.node[50].content_store 	misses[50] 	81017
scalar barabasi_100nodes_network.node[50].content_store 	decision_yes[50] 	81017
scalar barabasi_100nodes_network.node[50].content_store 	decision_no[50] 	0
scalar barabasi_100nodes_network.node[50].content_store 	decision_ratio[50] 	1
scalar barabasi_100nodes_network.node[51].core_layer 	interests[51] 	180465
scalar barabasi_100nodes_network.node[51].core_layer 	data[51] 	81043
[...]
scalar barabasi_100nodes_network.client[8] 	avg_time[8].real 	0
scalar barabasi_100nodes_network.client[9] 	hdistance[9].real 	1.5213910266362
scalar barabasi_100nodes_network.client[9] 	downloads[9].real 	180356
scalar barabasi_100nodes_network.client[9] 	avg_time[9].real 	0
scalar barabasi_100nodes_network.client[10] 	hdistance[10].real 	1.4191626086763
scalar barabasi_100nodes_network.client[10] 	downloads[10].real 	179892
scalar barabasi_100nodes_network.client[10] 	avg_time[10].real 	0
scalar barabasi_100nodes_network.client[11] 	hdistance[11].real 	1.3705633362371
scalar barabasi_100nodes_network.client[11] 	downloads[11].real 	179076
scalar barabasi_100nodes_network.client[11] 	avg_time[11].real 	0
scalar barabasi_100nodes_network.client[12] 	hdistance[12].real 	1.7210492036896
scalar barabasi_100nodes_network.client[12] 	downloads[12].real 	179641
scalar barabasi_100nodes_network.client[12] 	avg_time[12].real 	0
scalar barabasi_100nodes_network.client[13] 	hdistance[13].real 	1.7250511321522
scalar barabasi_100nodes_network.client[13] 	downloads[13].real 	179437
scalar barabasi_100nodes_network.client[13] 	avg_time[13].real 	0
scalar barabasi_100nodes_network.client[14] 	hdistance[14].real 	1.8322075504109
scalar barabasi_100nodes_network.client[14] 	downloads[14].real 	180467
scalar barabasi_100nodes_network.client[14] 	avg_time[14].real 	0
scalar barabasi_100nodes_network.client[15] 	hdistance[15].real 	1.4465087337215
scalar barabasi_100nodes_network.client[15] 	downloads[15].real 	179992
scalar barabasi_100nodes_network.client[15] 	avg_time[15].real 	0
scalar barabasi_100nodes_network.client[16] 	hdistance[16].real 	1.7565987619333
scalar barabasi_100nodes_network.client[16] 	downloads[16].real 	179958
scalar barabasi_100nodes_network.client[16] 	avg_time[16].real 	0
scalar barabasi_100nodes_network.client[17] 	hdistance[17].real 	1.8241335330909
scalar barabasi_100nodes_network.client[17] 	downloads[17].real 	179551
scalar barabasi_100nodes_network.client[17] 	avg_time[17].real 	0
scalar barabasi_100nodes_network.client[18] 	hdistance[18].real 	1.7831100221186
scalar barabasi_100nodes_network.client[18] 	downloads[18].real 	180391
scalar barabasi_100nodes_network.client[18] 	avg_time[18].real 	0
scalar barabasi_100nodes_network.client[19] 	hdistance[19].real 	2.1160329217191
scalar barabasi_100nodes_network.client[19] 	downloads[19].real 	179699
scalar barabasi_100nodes_network.client[19] 	avg_time[19].real 	0
scalar barabasi_100nodes_network.client[20] 	hdistance[20].real 	1.9551399577591
scalar barabasi_100nodes_network.client[20] 	downloads[20].real 	179447
scalar barabasi_100nodes_network.client[20] 	avg_time[20].real 	0
scalar barabasi_100nodes_network.client[21] 	hdistance[21].real 	1.4364403724676
scalar barabasi_100nodes_network.client[21] 	downloads[21].real 	180311
scalar barabasi_100nodes_network.client[21] 	avg_time[21].real 	0
scalar barabasi_100nodes_network.client[22] 	hdistance[22].real 	1.375702227757
scalar barabasi_100nodes_network.client[22] 	downloads[22].real 	180675
scalar barabasi_100nodes_network.client[22] 	avg_time[22].real 	0
scalar barabasi_100nodes_network.client[23] 	hdistance[23].real 	2.1185289737491
scalar barabasi_100nodes_network.client[23] 	downloads[23].real 	179956
scalar barabasi_100nodes_network.client[23] 	avg_time[23].real 	0
scalar barabasi_100nodes_network.client[24] 	hdistance[24].real 	1.7055021756406
scalar barabasi_100nodes_network.client[24] 	downloads[24].real 	179947
scalar barabasi_100nodes_network.client[24] 	avg_time[24].real 	0
scalar barabasi_100nodes_network.client[25] 	hdistance[25].real 	1.6736597641007
scalar barabasi_100nodes_network.client[25] 	downloads[25].real 	180416
scalar barabasi_100nodes_network.client[25] 	avg_time[25].real 	0
scalar barabasi_100nodes_network.client[26] 	hdistance[26].real 	1.7136110539402
scalar barabasi_100nodes_network.client[26] 	downloads[26].real 	179773
scalar barabasi_100nodes_network.client[26] 	avg_time[26].real 	0
scalar barabasi_100nodes_network.client[27] 	hdistance[27].real 	1.7305586041303
scalar barabasi_100nodes_network.client[27] 	downloads[27].real 	179501
scalar barabasi_100nodes_network.client[27] 	avg_time[27].real 	0
scalar barabasi_100nodes_network.client[28] 	hdistance[28].real 	1.3734831610093
scalar barabasi_100nodes_network.client[28] 	downloads[28].real 	180474
scalar barabasi_100nodes_network.client[28] 	avg_time[28].real 	0
scalar barabasi_100nodes_network.client[29] 	hdistance[29].real 	1.6213876051005
scalar barabasi_100nodes_network.client[29] 	downloads[29].real 	179590
scalar barabasi_100nodes_network.client[29] 	avg_time[29].real 	0
scalar barabasi_100nodes_network.client[30] 	hdistance[30].real 	1.7364684314325
scalar barabasi_100nodes_network.client[30] 	downloads[30].real 	180005
scalar barabasi_100nodes_network.client[30] 	avg_time[30].real 	0
scalar barabasi_100nodes_network.client[31] 	hdistance[31].real 	2.05199942303
scalar barabasi_100nodes_network.client[31] 	downloads[31].real 	180252
scalar barabasi_100nodes_network.client[31] 	avg_time[31].real 	0
scalar barabasi_100nodes_network.client[32] 	hdistance[32].real 	1.6887526605179
scalar barabasi_100nodes_network.client[32] 	downloads[32].real 	180416
scalar barabasi_100nodes_network.client[32] 	avg_time[32].real 	0
scalar barabasi_100nodes_network.client[33] 	hdistance[33].real 	1.6319598303254
scalar barabasi_100nodes_network.client[33] 	downloads[33].real 	179638
scalar barabasi_100nodes_network.client[33] 	avg_time[33].real 	0
scalar barabasi_100nodes_network.client[34] 	hdistance[34].real 	1.6240136821238
scalar barabasi_100nodes_network.client[34] 	downloads[34].real 	180089
scalar barabasi_100nodes_network.client[34] 	avg_time[34].real 	0
scalar barabasi_100nodes_network.client[35] 	hdistance[35].real 	1.6458850931677
scalar barabasi_100nodes_network.client[35] 	downloads[35].real 	180320
scalar barabasi_100nodes_network.client[35] 	avg_time[35].real 	0
scalar barabasi_100nodes_network.client[36] 	hdistance[36].real 	1.6705253091362
scalar barabasi_100nodes_network.client[36] 	downloads[36].real 	179856
scalar barabasi_100nodes_network.client[36] 	avg_time[36].real 	0
scalar barabasi_100nodes_network.client[37] 	hdistance[37].real 	1.2593131110554
scalar barabasi_100nodes_network.client[37] 	downloads[37].real 	179505
scalar barabasi_100nodes_network.client[37] 	avg_time[37].real 	0
scalar barabasi_100nodes_network.client[38] 	hdistance[38].real 	1.9552648578811
scalar barabasi_100nodes_network.client[38] 	downloads[38].real 	179568
scalar barabasi_100nodes_network.client[38] 	avg_time[38].real 	0
scalar barabasi_100nodes_network.client[39] 	hdistance[39].real 	1.8657401987837
scalar barabasi_100nodes_network.client[39] 	downloads[39].real 	179391
scalar barabasi_100nodes_network.client[39] 	avg_time[39].real 	0
scalar barabasi_100nodes_network.client[40] 	hdistance[40].real 	1.7027526807679
scalar barabasi_100nodes_network.client[40] 	downloads[40].real 	180079
scalar barabasi_100nodes_network.client[40] 	avg_time[40].real 	0
scalar barabasi_100nodes_network.client[41] 	hdistance[41].real 	1.7567380826345
scalar barabasi_100nodes_network.client[41] 	downloads[41].real 	179465
scalar barabasi_100nodes_network.client[41] 	avg_time[41].real 	0
scalar barabasi_100nodes_network.client[42] 	hdistance[42].real 	1.9409708500086
scalar barabasi_100nodes_network.client[42] 	downloads[42].real 	179657
scalar barabasi_100nodes_network.client[42] 	avg_time[42].real 	0
scalar barabasi_100nodes_network.client[43] 	hdistance[43].real 	1.9494179870639
scalar barabasi_100nodes_network.client[43] 	downloads[43].real 	179807
scalar barabasi_100nodes_network.client[43] 	avg_time[43].real 	0
scalar barabasi_100nodes_network.client[44] 	hdistance[44].real 	1.3694205972834
scalar barabasi_100nodes_network.client[44] 	downloads[44].real 	180082
scalar barabasi_100nodes_network.client[44] 	avg_time[44].real 	0
scalar barabasi_100nodes_network.client[45] 	hdistance[45].real 	1.6275207855465
scalar barabasi_100nodes_network.client[45] 	downloads[45].real 	180053
scalar barabasi_100nodes_network.client[45] 	avg_time[45].real 	0
scalar barabasi_100nodes_network.client[46] 	hdistance[46].real 	1.9223220948753
scalar barabasi_100nodes_network.client[46] 	downloads[46].real 	179562
scalar barabasi_100nodes_network.client[46] 	avg_time[46].real 	0
scalar barabasi_100nodes_network.client[47] 	hdistance[47].real 	2.2905111844192
scalar barabasi_100nodes_network.client[47] 	downloads[47].real 	179759
scalar barabasi_100nodes_network.client[47] 	avg_time[47].real 	0
scalar barabasi_100nodes_network.client[48] 	hdistance[48].real 	1.95831949886
scalar barabasi_100nodes_network.client[48] 	downloads[48].real 	180708
scalar barabasi_100nodes_network.client[48] 	avg_time[48].real 	0
scalar barabasi_100nodes_network.client[49] 	hdistance[49].real 	1.9461011473766
scalar barabasi_100nodes_network.client[49] 	downloads[49].real 	179540
scalar barabasi_100nodes_network.client[49] 	avg_time[49].real 	0
scalar barabasi_100nodes_network.client[50] 	hdistance[50].real 	1.9230512787745
scalar barabasi_100nodes_network.client[50] 	downloads[50].real 	179977
scalar barabasi_100nodes_network.client[50] 	avg_time[50].real 	0
scalar barabasi_100nodes_network.client[51] 	hdistance[51].real 	2.2838611365084
scalar barabasi_100nodes_network.client[51] 	downloads[51].real 	180465
scalar barabasi_100nodes_network.client[51] 	avg_time[51].real 	0
scalar barabasi_100nodes_network.client[52] 	hdistance[52].real 	1.9577669284182
scalar barabasi_100nodes_network.client[52] 	downloads[52].real 	180451
scalar barabasi_100nodes_network.client[52] 	avg_time[52].real 	0
scalar barabasi_100nodes_network.client[53] 	hdistance[53].real 	1.8350791001492
scalar barabasi_100nodes_network.client[53] 	downloads[53].real 	180341
scalar barabasi_100nodes_network.client[53] 	avg_time[53].real 	0
scalar barabasi_100nodes_network.client[54] 	hdistance[54].real 	2.0011487074252
scalar barabasi_100nodes_network.client[54] 	downloads[54].real 	179332
scalar barabasi_100nodes_network.client[54] 	avg_time[54].real 	0
scalar barabasi_100nodes_network.client[55] 	hdistance[55].real 	1.6745907767153
scalar barabasi_100nodes_network.client[55] 	downloads[55].real 	179242
scalar barabasi_100nodes_network.client[55] 	avg_time[55].real 	0
scalar barabasi_100nodes_network.client[56] 	hdistance[56].real 	1.6982637885423
scalar barabasi_100nodes_network.client[56] 	downloads[56].real 	179932
scalar barabasi_100nodes_network.client[56] 	avg_time[56].real 	0
scalar barabasi_100nodes_network.client[57] 	hdistance[57].real 	1.4853594304461
scalar barabasi_100nodes_network.client[57] 	downloads[57].real 	179228
scalar barabasi_100nodes_network.client[57] 	avg_time[57].real 	0
scalar barabasi_100nodes_network.client[58] 	hdistance[58].real 	1.4221137038373
scalar barabasi_100nodes_network.client[58] 	downloads[58].real 	180205
scalar barabasi_100nodes_network.client[58] 	avg_time[58].real 	0
scalar barabasi_100nodes_network.client[59] 	hdistance[59].real 	1.6262887599589
scalar barabasi_100nodes_network.client[59] 	downloads[59].real 	180115
scalar barabasi_100nodes_network.client[59] 	avg_time[59].real 	0
scalar barabasi_100nodes_network.client[60] 	hdistance[60].real 	1.8099498965857
scalar barabasi_100nodes_network.client[60] 	downloads[60].real 	180826
scalar barabasi_100nodes_network.client[60] 	avg_time[60].real 	0
scalar barabasi_100nodes_network.client[61] 	hdistance[61].real 	1.8340683725509
scalar barabasi_100nodes_network.client[61] 	downloads[61].real 	179809
scalar barabasi_100nodes_network.client[61] 	avg_time[61].real 	0
scalar barabasi_100nodes_network.client[62] 	hdistance[62].real 	1.7006048944476
scalar barabasi_100nodes_network.client[62] 	downloads[62].real 	180858
scalar barabasi_100nodes_network.client[62] 	avg_time[62].real 	0
scalar barabasi_100nodes_network.client[63] 	hdistance[63].real 	2.2949715712106
scalar barabasi_100nodes_network.client[63] 	downloads[63].real 	180275
scalar barabasi_100nodes_network.client[63] 	avg_time[63].real 	0
scalar barabasi_100nodes_network.client[64] 	hdistance[64].real 	1.9499089202762
scalar barabasi_100nodes_network.client[64] 	downloads[64].real 	180611
scalar barabasi_100nodes_network.client[64] 	avg_time[64].real 	0
scalar barabasi_100nodes_network.client[65] 	hdistance[65].real 	2.0230447276709
scalar barabasi_100nodes_network.client[65] 	downloads[65].real 	179911
scalar barabasi_100nodes_network.client[65] 	avg_time[65].real 	0
scalar barabasi_100nodes_network.client[66] 	hdistance[66].real 	1.826264518131
scalar barabasi_100nodes_network.client[66] 	downloads[66].real 	180464
scalar barabasi_100nodes_network.client[66] 	avg_time[66].real 	0
scalar barabasi_100nodes_network.client[67] 	hdistance[67].real 	1.9465248676895
scalar barabasi_100nodes_network.client[67] 	downloads[67].real 	179691
scalar barabasi_100nodes_network.client[67] 	avg_time[67].real 	0
scalar barabasi_100nodes_network.client[68] 	hdistance[68].real 	1.8440833333333
scalar barabasi_100nodes_network.client[68] 	downloads[68].real 	180000
scalar barabasi_100nodes_network.client[68] 	avg_time[68].real 	0
scalar barabasi_100nodes_network.client[69] 	hdistance[69].real 	1.9395178384167
scalar barabasi_100nodes_network.client[69] 	downloads[69].real 	179276
scalar barabasi_100nodes_network.client[69] 	avg_time[69].real 	0
scalar barabasi_100nodes_network.client[70] 	hdistance[70].real 	2.3001270831367
scalar barabasi_100nodes_network.client[70] 	downloads[70].real 	180197
scalar barabasi_100nodes_network.client[70] 	avg_time[70].real 	0
scalar barabasi_100nodes_network.client[71] 	hdistance[71].real 	1.721249432026
scalar barabasi_100nodes_network.client[71] 	downloads[71].real 	180466
scalar barabasi_100nodes_network.client[71] 	avg_time[71].real 	0
scalar barabasi_100nodes_network.client[72] 	hdistance[72].real 	1.78376624817
scalar barabasi_100nodes_network.client[72] 	downloads[72].real 	180328
scalar barabasi_100nodes_network.client[72] 	avg_time[72].real 	0
scalar barabasi_100nodes_network.client[73] 	hdistance[73].real 	1.2755955496653
scalar barabasi_100nodes_network.client[73] 	downloads[73].real 	179582
scalar barabasi_100nodes_network.client[73] 	avg_time[73].real 	0
scalar barabasi_100nodes_network.client[74] 	hdistance[74].real 	1.3739339226103
scalar barabasi_100nodes_network.client[74] 	downloads[74].real 	180334
scalar barabasi_100nodes_network.client[74] 	avg_time[74].real 	0
scalar barabasi_100nodes_network.client[75] 	hdistance[75].real 	1.9605228830729
scalar barabasi_100nodes_network.client[75] 	downloads[75].real 	180155
scalar barabasi_100nodes_network.client[75] 	avg_time[75].real 	0
scalar barabasi_100nodes_network.client[76] 	hdistance[76].real 	1.5259598301999
scalar barabasi_100nodes_network.client[76] 	downloads[76].real 	180683
scalar barabasi_100nodes_network.client[76] 	avg_time[76].real 	0
scalar barabasi_100nodes_network.client[77] 	hdistance[77].real 	1.6431155695112
scalar barabasi_100nodes_network.client[77] 	downloads[77].real 	179935
scalar barabasi_100nodes_network.client[77] 	avg_time[77].real 	0
scalar barabasi_100nodes_network.client[78] 	hdistance[78].real 	2.043224732093
scalar barabasi_100nodes_network.client[78] 	downloads[78].real 	180753
scalar barabasi_100nodes_network.client[78] 	avg_time[78].real 	0
scalar barabasi_100nodes_network.client[79] 	hdistance[79].real 	1.6332908056671
scalar barabasi_100nodes_network.client[79] 	downloads[79].real 	179491
scalar barabasi_100nodes_network.client[79] 	avg_time[79].real 	0
scalar barabasi_100nodes_network.client[80] 	hdistance[80].real 	2.3041835237629
scalar barabasi_100nodes_network.client[80] 	downloads[80].real 	179944
scalar barabasi_100nodes_network.client[80] 	avg_time[80].real 	0
scalar barabasi_100nodes_network.client[81] 	hdistance[81].real 	1.8474111856424
scalar barabasi_100nodes_network.client[81] 	downloads[81].real 	179194
scalar barabasi_100nodes_network.client[81] 	avg_time[81].real 	0
scalar barabasi_100nodes_network.client[82] 	hdistance[82].real 	2.1690609456197
scalar barabasi_100nodes_network.client[82] 	downloads[82].real 	179734
scalar barabasi_100nodes_network.client[82] 	avg_time[82].real 	0
scalar barabasi_100nodes_network.client[83] 	hdistance[83].real 	2.2889823969268
scalar barabasi_100nodes_network.client[83] 	downloads[83].real 	180139
scalar barabasi_100nodes_network.client[83] 	avg_time[83].real 	0
scalar barabasi_100nodes_network.client[84] 	hdistance[84].real 	2.023187284036
scalar barabasi_100nodes_network.client[84] 	downloads[84].real 	180875
scalar barabasi_100nodes_network.client[84] 	avg_time[84].real 	0
scalar barabasi_100nodes_network.client[85] 	hdistance[85].real 	1.6770758654418
scalar barabasi_100nodes_network.client[85] 	downloads[85].real 	179937
scalar barabasi_100nodes_network.client[85] 	avg_time[85].real 	0
scalar barabasi_100nodes_network.client[86] 	hdistance[86].real 	2.286998425127
scalar barabasi_100nodes_network.client[86] 	downloads[86].real 	180332
scalar barabasi_100nodes_network.client[86] 	avg_time[86].real 	0
scalar barabasi_100nodes_network.client[87] 	hdistance[87].real 	2.2912388014964
scalar barabasi_100nodes_network.client[87] 	downloads[87].real 	180158
scalar barabasi_100nodes_network.client[87] 	avg_time[87].real 	0
scalar barabasi_100nodes_network.client[88] 	hdistance[88].real 	2.035826835111
scalar barabasi_100nodes_network.client[88] 	downloads[88].real 	179921
scalar barabasi_100nodes_network.client[88] 	avg_time[88].real 	0
scalar barabasi_100nodes_network.client[89] 	hdistance[89].real 	2.2969956174501
scalar barabasi_100nodes_network.client[89] 	downloads[89].real 	179804
scalar barabasi_100nodes_network.client[89] 	avg_time[89].real 	0
scalar barabasi_100nodes_network.client[90] 	hdistance[90].real 	1.6069710004163
scalar barabasi_100nodes_network.client[90] 	downloads[90].real 	180175
scalar barabasi_100nodes_network.client[90] 	avg_time[90].real 	0
scalar barabasi_100nodes_network.client[91] 	hdistance[91].real 	1.944826050654
scalar barabasi_100nodes_network.client[91] 	downloads[91].real 	179650
scalar barabasi_100nodes_network.client[91] 	avg_time[91].real 	0
scalar barabasi_100nodes_network.client[92] 	hdistance[92].real 	2.3029535161568
scalar barabasi_100nodes_network.client[92] 	downloads[92].real 	179955
scalar barabasi_100nodes_network.client[92] 	avg_time[92].real 	0
scalar barabasi_100nodes_network.client[93] 	hdistance[93].real 	1.3677901996774
scalar barabasi_100nodes_network.client[93] 	downloads[93].real 	179790
scalar barabasi_100nodes_network.client[93] 	avg_time[93].real 	0
scalar barabasi_100nodes_network.client[94] 	hdistance[94].real 	1.7089876694408
scalar barabasi_100nodes_network.client[94] 	downloads[94].real 	179635
scalar barabasi_100nodes_network.client[94] 	avg_time[94].real 	0
scalar barabasi_100nodes_network.client[95] 	hdistance[95].real 	1.731214818512
scalar barabasi_100nodes_network.client[95] 	downloads[95].real 	180315
scalar barabasi_100nodes_network.client[95] 	avg_time[95].real 	0
scalar barabasi_100nodes_network.client[96] 	hdistance[96].real 	1.8572009900107
scalar barabasi_100nodes_network.client[96] 	downloads[96].real 	179392
scalar barabasi_100nodes_network.client[96] 	avg_time[96].real 	0
scalar barabasi_100nodes_network.client[97] 	hdistance[97].real 	2.2780529471471
scalar barabasi_100nodes_network.client[97] 	downloads[97].real 	180293
scalar barabasi_100nodes_network.client[97] 	avg_time[97].real 	0
scalar barabasi_100nodes_network.client[98] 	hdistance[98].real 	2.1733583447908
scalar barabasi_100nodes_network.client[98] 	downloads[98].real 	179651
scalar barabasi_100nodes_network.client[98] 	avg_time[98].real 	0
scalar barabasi_100nodes_network.client[99] 	hdistance[99].real 	2.0338445443618
scalar barabasi_100nodes_network.client[99] 	downloads[99].real 	179704
scalar barabasi_100nodes_network.client[99] 	avg_time[99].real 	0
