version 2
run General-7-20141007-11:45:30-22077
attr D fix0.05
attr F spr
attr R lru
attr a 1
attr configname General
attr csize 1e3
attr ctlg 1e5
attr datetime 20141007-11:45:30
attr experiment General
attr inifile omnetpp.ini
attr iterationvars "$net=abilene_cost, $rep=3, $priceratiovalue=10, $weights=0.333_0.333_0.334, $lambda=100, $a=1, $ctlg=1e5, $F=spr, $ttl=10, $D=fix0.05, $xi=1, $R=lru, $csize=1e3, $pricebits=0, $window=60, $variance=0.05, $mytime=1800"
attr iterationvars2 "$net=abilene_cost, $rep=3, $priceratiovalue=10, $weights=0.333_0.333_0.334, $lambda=100, $a=1, $ctlg=1e5, $F=spr, $ttl=10, $D=fix0.05, $xi=1, $R=lru, $csize=1e3, $pricebits=0, $window=60, $variance=0.05, $mytime=1800, $repetition=0"
attr lambda 100
attr measurement "$net=abilene_cost, $rep=3, $priceratiovalue=10, $weights=0.333_0.333_0.334, $lambda=100, $a=1, $ctlg=1e5, $F=spr, $ttl=10, $D=fix0.05, $xi=1, $R=lru, $csize=1e3, $pricebits=0, $window=60, $variance=0.05, $mytime=1800"
attr mytime 1800
attr net abilene_cost
attr network networks.${net=abilene_cost,geant_cost}_network
attr pricebits 0
attr priceratiovalue 10
attr processid 22077
attr rep 3
attr repetition 0
attr replication #0
attr resultdir results
attr runnumber 7
attr seedset 3
attr ttl 10
attr variance 0.05
attr weights 0.333_0.333_0.334
attr window 60
attr xi 1

scalar . 	a 	1
scalar . 	csize 	1e3
scalar . 	ctlg 	1e5
scalar . 	lambda 	100
scalar . 	mytime 	1800
scalar . 	pricebits 	0
scalar . 	priceratiovalue 	10
scalar . 	rep 	3
scalar . 	ttl 	10
scalar . 	variance 	0.05
scalar . 	window 	60
scalar . 	xi 	1
scalar abilene_cost_network.content_distribution 	repo-0 	9
scalar abilene_cost_network.content_distribution 	repo-1 	4
scalar abilene_cost_network.content_distribution 	repo-2 	0
scalar abilene_cost_network.content_distribution 	client-0 	9
scalar abilene_cost_network.content_distribution 	client-1 	0
scalar abilene_cost_network.content_distribution 	client-2 	1
scalar abilene_cost_network.content_distribution 	repo-0_card 	33498
scalar abilene_cost_network.content_distribution 	repo-0_price 	0
scalar abilene_cost_network.content_distribution 	repo-1_card 	33168
scalar abilene_cost_network.content_distribution 	repo-1_price 	10
scalar abilene_cost_network.content_distribution 	repo-2_card 	33334
scalar abilene_cost_network.content_distribution 	repo-2_price 	1
scalar abilene_cost_network.statistics 	repo_popularity[0] 	0.34820484875244
scalar abilene_cost_network.statistics 	repo_popularity[1] 	0.25519349814637
scalar abilene_cost_network.statistics 	repo_popularity[2] 	0.3966016531012
scalar abilene_cost_network.statistics 	stabilization_time 	36060
scalar abilene_cost_network.statistics 	p_hit 	0.20816121009465
scalar abilene_cost_network.statistics 	interests 	107063
scalar abilene_cost_network.statistics 	data 	58064
scalar abilene_cost_network.statistics 	hdistance 	1.730436168382
scalar abilene_cost_network.statistics 	avg_time 	0.007650134792
scalar abilene_cost_network.statistics 	downloads 	538860
scalar abilene_cost_network.statistics 	total_cost 	952491
scalar abilene_cost_network.statistics 	total_replicas 	100000
scalar abilene_cost_network.statistics 	inner_hit 	0.45497160672531
scalar abilene_cost_network.node[0].core_layer 	interests[0] 	252038
scalar abilene_cost_network.node[0].core_layer 	repo_load[0] 	101121
scalar abilene_cost_network.node[0].core_layer 	data[0] 	82505
scalar abilene_cost_network.node[0].core_layer 	repo_int[0] 	293694
scalar abilene_cost_network.node[0].content_store 	p_hit[0] 	0.27126465056857
scalar abilene_cost_network.node[0].content_store 	hits[0] 	68369
scalar abilene_cost_network.node[0].content_store 	misses[0] 	183669
scalar abilene_cost_network.node[0].content_store 	decision_yes[0] 	9132
scalar abilene_cost_network.node[0].content_store 	decision_no[0] 	174494
scalar abilene_cost_network.node[0].content_store 	decision_ratio[0] 	0.049731519501596
scalar abilene_cost_network.node[1].core_layer 	interests[1] 	220723
scalar abilene_cost_network.node[1].core_layer 	data[1] 	152268
scalar abilene_cost_network.node[1].content_store 	p_hit[1] 	0.30990879971729
scalar abilene_cost_network.node[1].content_store 	hits[1] 	68404
scalar abilene_cost_network.node[1].content_store 	misses[1] 	152319
scalar abilene_cost_network.node[1].content_store 	decision_yes[1] 	7558
scalar abilene_cost_network.node[1].content_store 	decision_no[1] 	144710
scalar abilene_cost_network.node[1].content_store 	decision_ratio[1] 	0.049636167809389
scalar abilene_cost_network.node[2].core_layer 	interests[2] 	107108
scalar abilene_cost_network.node[2].core_layer 	data[2] 	95466
scalar abilene_cost_network.node[2].content_store 	p_hit[2] 	0.10867535571573
scalar abilene_cost_network.node[2].content_store 	hits[2] 	11640
scalar abilene_cost_network.node[2].content_store 	misses[2] 	95468
scalar abilene_cost_network.node[2].content_store 	decision_yes[2] 	4764
scalar abilene_cost_network.node[2].content_store 	decision_no[2] 	90702
scalar abilene_cost_network.node[2].content_store 	decision_ratio[2] 	0.049902583118597
scalar abilene_cost_network.node[3].core_layer 	interests[3] 	95466
scalar abilene_cost_network.node[3].core_layer 	data[3] 	89444
scalar abilene_cost_network.node[3].content_store 	p_hit[3] 	0.06309052437517
scalar abilene_cost_network.node[3].content_store 	hits[3] 	6023
scalar abilene_cost_network.node[3].content_store 	misses[3] 	89443
scalar abilene_cost_network.node[3].content_store 	decision_yes[3] 	4407
scalar abilene_cost_network.node[3].content_store 	decision_no[3] 	85037
scalar abilene_cost_network.node[3].content_store 	decision_ratio[3] 	0.049271052278521
scalar abilene_cost_network.node[4].core_layer 	interests[4] 	89444
scalar abilene_cost_network.node[4].core_layer 	repo_load[4] 	85137
scalar abilene_cost_network.node[4].core_layer 	data[4] 	0
scalar abilene_cost_network.node[4].content_store 	p_hit[4] 	0.048153034300792
scalar abilene_cost_network.node[4].content_store 	hits[4] 	4307
scalar abilene_cost_network.node[4].content_store 	misses[4] 	85137
scalar abilene_cost_network.node[4].content_store 	decision_yes[4] 	4313
scalar abilene_cost_network.node[4].content_store 	decision_no[4] 	80824
scalar abilene_cost_network.node[4].content_store 	decision_ratio[4] 	0.050659525235796
scalar abilene_cost_network.node[5].core_layer 	interests[5] 	0
scalar abilene_cost_network.node[5].core_layer 	data[5] 	0
scalar abilene_cost_network.node[5].content_store 	p_hit[5] 	-nan
scalar abilene_cost_network.node[5].content_store 	hits[5] 	0
scalar abilene_cost_network.node[5].content_store 	misses[5] 	0
scalar abilene_cost_network.node[5].content_store 	decision_yes[5] 	0
scalar abilene_cost_network.node[5].content_store 	decision_no[5] 	0
scalar abilene_cost_network.node[5].content_store 	decision_ratio[5] 	0
scalar abilene_cost_network.node[6].core_layer 	interests[6] 	0
scalar abilene_cost_network.node[6].core_layer 	data[6] 	0
scalar abilene_cost_network.node[6].content_store 	p_hit[6] 	-nan
scalar abilene_cost_network.node[6].content_store 	hits[6] 	0
scalar abilene_cost_network.node[6].content_store 	misses[6] 	0
scalar abilene_cost_network.node[6].content_store 	decision_yes[6] 	0
scalar abilene_cost_network.node[6].content_store 	decision_no[6] 	0
scalar abilene_cost_network.node[6].content_store 	decision_ratio[6] 	0
scalar abilene_cost_network.node[7].core_layer 	interests[7] 	0
scalar abilene_cost_network.node[7].core_layer 	data[7] 	0
scalar abilene_cost_network.node[7].content_store 	p_hit[7] 	-nan
scalar abilene_cost_network.node[7].content_store 	hits[7] 	0
scalar abilene_cost_network.node[7].content_store 	misses[7] 	0
scalar abilene_cost_network.node[7].content_store 	decision_yes[7] 	0
scalar abilene_cost_network.node[7].content_store 	decision_no[7] 	0
scalar abilene_cost_network.node[7].content_store 	decision_ratio[7] 	0
scalar abilene_cost_network.node[8].core_layer 	interests[8] 	40979
scalar abilene_cost_network.node[8].core_layer 	data[8] 	33362
scalar abilene_cost_network.node[8].content_store 	p_hit[8] 	0.1859000951707
scalar abilene_cost_network.node[8].content_store 	hits[8] 	7618
scalar abilene_cost_network.node[8].content_store 	misses[8] 	33361
scalar abilene_cost_network.node[8].content_store 	decision_yes[8] 	1630
scalar abilene_cost_network.node[8].content_store 	decision_no[8] 	31732
scalar abilene_cost_network.node[8].content_store 	decision_ratio[8] 	0.048857982135364
scalar abilene_cost_network.node[9].core_layer 	interests[9] 	251005
scalar abilene_cost_network.node[9].core_layer 	repo_load[9] 	107436
scalar abilene_cost_network.node[9].core_layer 	data[9] 	79069
scalar abilene_cost_network.node[9].content_store 	p_hit[9] 	0.2567797454234
scalar abilene_cost_network.node[9].content_store 	hits[9] 	64453
scalar abilene_cost_network.node[9].content_store 	misses[9] 	186552
scalar abilene_cost_network.node[9].content_store 	decision_yes[9] 	9414
scalar abilene_cost_network.node[9].content_store 	decision_no[9] 	177091
scalar abilene_cost_network.node[9].content_store 	decision_ratio[9] 	0.050475858556071
scalar abilene_cost_network.node[10].core_layer 	interests[10] 	120930
scalar abilene_cost_network.node[10].core_layer 	data[10] 	106590
scalar abilene_cost_network.node[10].content_store 	p_hit[10] 	0.11854792028446
scalar abilene_cost_network.node[10].content_store 	hits[10] 	14336
scalar abilene_cost_network.node[10].content_store 	misses[10] 	106594
scalar abilene_cost_network.node[10].content_store 	decision_yes[10] 	5245
scalar abilene_cost_network.node[10].content_store 	decision_no[10] 	101345
scalar abilene_cost_network.node[10].content_store 	decision_ratio[10] 	0.049207242705695
scalar abilene_cost_network.client[0] 	hdistance[0] 	1.7529210792222
scalar abilene_cost_network.client[0] 	downloads[0] 	179129
scalar abilene_cost_network.client[0] 	avg_time[0] 	0.007318934943
scalar abilene_cost_network.client[1] 	hdistance[1] 	1.7327504160382
scalar abilene_cost_network.client[1] 	downloads[1] 	179671
scalar abilene_cost_network.client[1] 	avg_time[1] 	0.007679477253
scalar abilene_cost_network.client[9] 	hdistance[9] 	1.7056370098856
scalar abilene_cost_network.client[9] 	downloads[9] 	180060
scalar abilene_cost_network.client[9] 	avg_time[9] 	0.007951992182
