version 2
run General-8-20150403-16:38:58-12704
attr D costaware0.01
attr F nrr
attr R lru
attr a 0.85
attr configname General
attr csize 1e3
attr ctlg 1e5
attr datetime 20150403-16:38:58
attr experiment General
attr inifile omnetpp.ini
attr iterationvars "$rep=19, $net=cost_scenario, $lambda=100, $a=0.85, $ctlg=1e5, $F=nrr, $ttl=10, $D=costaware0.01, $R=lru, $csize=1e3, $window=60, $variance=0.05, $mytime=1800000, $kappa=1, $priceratiovalue=10, $splits=0.333_0.333_0.334, $pricebits=0"
attr iterationvars2 "$rep=19, $net=cost_scenario, $lambda=100, $a=0.85, $ctlg=1e5, $F=nrr, $ttl=10, $D=costaware0.01, $R=lru, $csize=1e3, $window=60, $variance=0.05, $mytime=1800000, $kappa=1, $priceratiovalue=10, $splits=0.333_0.333_0.334, $pricebits=0, $repetition=0"
attr kappa 1
attr lambda 100
attr measurement "$rep=19, $net=cost_scenario, $lambda=100, $a=0.85, $ctlg=1e5, $F=nrr, $ttl=10, $D=costaware0.01, $R=lru, $csize=1e3, $window=60, $variance=0.05, $mytime=1800000, $kappa=1, $priceratiovalue=10, $splits=0.333_0.333_0.334, $pricebits=0"
attr mytime 1800000
attr net cost_scenario
attr network networks.${net=cost_scenario}_network
attr pricebits 0
attr priceratiovalue 10
attr processid 12704
attr rep 19
attr repetition 0
attr replication #0
attr resultdir results
attr runnumber 8
attr seedset 19
attr splits 0.333_0.333_0.334
attr ttl 10
attr variance 0.05
attr window 60

scalar . 	a 	0.85
scalar . 	csize 	1e3
scalar . 	ctlg 	1e5
scalar . 	kappa 	1
scalar . 	lambda 	100
scalar . 	mytime 	1800000
scalar . 	pricebits 	0
scalar . 	priceratiovalue 	10
scalar . 	rep 	19
scalar . 	ttl 	10
scalar . 	variance 	0.05
scalar . 	window 	60
scalar cost_scenario_network.content_distribution 	repo-0 	1
scalar cost_scenario_network.content_distribution 	repo-1 	2
scalar cost_scenario_network.content_distribution 	repo-2 	3
scalar cost_scenario_network.content_distribution 	client-0 	0
scalar cost_scenario_network.content_distribution 	repo-0_card 	33369
scalar cost_scenario_network.content_distribution 	repo-0_price 	1
scalar cost_scenario_network.content_distribution 	repo-1_card 	33388
scalar cost_scenario_network.content_distribution 	repo-1_price 	10
scalar cost_scenario_network.content_distribution 	repo-2_card 	33243
scalar cost_scenario_network.content_distribution 	repo-2_price 	0
scalar cost_scenario_network.statistics 	repo_popularity[0] 	0.30937654886154
scalar cost_scenario_network.statistics 	repo_popularity[1] 	0.33633428535854
scalar cost_scenario_network.statistics 	repo_popularity[2] 	0.35428916577992
scalar cost_scenario_network.statistics 	stabilization_time 	1473.4
scalar cost_scenario_network.statistics 	p_hit 	0.14077217121935
scalar cost_scenario_network.statistics 	interests 	78899942.75
scalar cost_scenario_network.statistics 	data 	33896513.25
scalar cost_scenario_network.statistics 	hdistance 	1.5063968958185
scalar cost_scenario_network.statistics 	avg_time 	0
scalar cost_scenario_network.statistics 	downloads 	180013718
scalar cost_scenario_network.statistics 	total_cost 	380549587
scalar cost_scenario_network.statistics 	total_replicas 	100000
scalar cost_scenario_network.statistics 	inner_hit 	0.2468015520906
scalar cost_scenario_network.statistics 	interests_sent 	180013718
scalar cost_scenario_network.node[0].core_layer 	interests[0] 	180013718
scalar cost_scenario_network.node[0].core_layer 	data[0] 	135586053
scalar cost_scenario_network.node[0].core_layer 	repo_int[0] 	135586053
scalar cost_scenario_network.node[0].content_store 	p_hit[0] 	0.2468015520906
scalar cost_scenario_network.node[0].content_store 	hits[0] 	44427665
scalar cost_scenario_network.node[0].content_store 	misses[0] 	135586053
scalar cost_scenario_network.node[0].content_store 	decision_yes[0] 	1036803
scalar cost_scenario_network.node[0].content_store 	decision_no[0] 	134549250
scalar cost_scenario_network.node[0].content_store 	decision_ratio[0] 	0.0076468263295488
scalar cost_scenario_network.node[0].content_store 	cache_value[0] 	48.810294782702
scalar cost_scenario_network.node[0].content_store 	average_price_of_cache[0] 	7.426
scalar cost_scenario_network.node[0].content_store 	correction_factor[0] 	0.0027225701061802
scalar cost_scenario_network.node[0].content_store 	kappa[0] 	1
scalar cost_scenario_network.node[1].core_layer 	interests[1] 	37509507
scalar cost_scenario_network.node[1].core_layer 	repo_load[1] 	37509507
scalar cost_scenario_network.node[1].core_layer 	data[1] 	0
scalar cost_scenario_network.node[1].content_store 	p_hit[1] 	0
scalar cost_scenario_network.node[1].content_store 	hits[1] 	0
scalar cost_scenario_network.node[1].content_store 	misses[1] 	37509507
scalar cost_scenario_network.node[1].content_store 	decision_yes[1] 	0
scalar cost_scenario_network.node[1].content_store 	decision_no[1] 	37509507
scalar cost_scenario_network.node[1].content_store 	decision_ratio[1] 	0
scalar cost_scenario_network.node[1].content_store 	cache_value[1] 	9.2217313271017e-317
scalar cost_scenario_network.node[1].content_store 	average_price_of_cache[1] 	-nan
scalar cost_scenario_network.node[1].content_store 	correction_factor[1] 	0.0027225701061802
scalar cost_scenario_network.node[1].content_store 	kappa[1] 	1
scalar cost_scenario_network.node[2].core_layer 	interests[2] 	34304008
scalar cost_scenario_network.node[2].core_layer 	repo_load[2] 	34304008
scalar cost_scenario_network.node[2].core_layer 	data[2] 	0
scalar cost_scenario_network.node[2].content_store 	p_hit[2] 	0
scalar cost_scenario_network.node[2].content_store 	hits[2] 	0
scalar cost_scenario_network.node[2].content_store 	misses[2] 	34304008
scalar cost_scenario_network.node[2].content_store 	decision_yes[2] 	0
scalar cost_scenario_network.node[2].content_store 	decision_no[2] 	34304008
scalar cost_scenario_network.node[2].content_store 	decision_ratio[2] 	0
scalar cost_scenario_network.node[2].content_store 	cache_value[2] 	9.2233202422187e-317
scalar cost_scenario_network.node[2].content_store 	average_price_of_cache[2] 	-nan
scalar cost_scenario_network.node[2].content_store 	correction_factor[2] 	0.0027225701061802
scalar cost_scenario_network.node[2].content_store 	kappa[2] 	1
scalar cost_scenario_network.node[3].core_layer 	interests[3] 	63772538
scalar cost_scenario_network.node[3].core_layer 	repo_load[3] 	63772538
scalar cost_scenario_network.node[3].core_layer 	data[3] 	0
scalar cost_scenario_network.node[3].content_store 	p_hit[3] 	0
scalar cost_scenario_network.node[3].content_store 	hits[3] 	0
scalar cost_scenario_network.node[3].content_store 	misses[3] 	63772538
scalar cost_scenario_network.node[3].content_store 	decision_yes[3] 	0
scalar cost_scenario_network.node[3].content_store 	decision_no[3] 	63772538
scalar cost_scenario_network.node[3].content_store 	decision_ratio[3] 	0
scalar cost_scenario_network.node[3].content_store 	cache_value[3] 	9.2249091573358e-317
scalar cost_scenario_network.node[3].content_store 	average_price_of_cache[3] 	-nan
scalar cost_scenario_network.node[3].content_store 	correction_factor[3] 	0.0027225701061802
scalar cost_scenario_network.node[3].content_store 	kappa[3] 	1
scalar cost_scenario_network.client[0] 	hdistance[0] 	1.5063968958185
scalar cost_scenario_network.client[0] 	downloads[0] 	180013718
scalar cost_scenario_network.client[0] 	avg_time[0] 	0
scalar cost_scenario_network.client[0] 	interests_sent[0] 	180013718
