version 2
run General-3-20150722-13:15:17-32161
attr C 1e4
attr D lce
attr F spr
attr R always_highq
attr a 1
attr brates 0.3_0.7_1.5_2.5_3.5
attr configname General
attr ctlg 1e6
attr datetime 20150722-13:15:17
attr experiment General
attr inifile omnetpp.ini
attr iterationvars "$net=barabasi_100nodes, $rep=2, $lambda=100, $a=1, $ctlg=1e6, $brates=0.3_0.7_1.5_2.5_3.5, $F=spr, $ttl=1000, $D=lce, $R=always_highq, $C=1e4, $window=60, $variance=0.05, $mytime=180000"
attr iterationvars2 "$net=barabasi_100nodes, $rep=2, $lambda=100, $a=1, $ctlg=1e6, $brates=0.3_0.7_1.5_2.5_3.5, $F=spr, $ttl=1000, $D=lce, $R=always_highq, $C=1e4, $window=60, $variance=0.05, $mytime=180000, $repetition=0"
attr lambda 100
attr measurement "$net=barabasi_100nodes, $rep=2, $lambda=100, $a=1, $ctlg=1e6, $brates=0.3_0.7_1.5_2.5_3.5, $F=spr, $ttl=1000, $D=lce, $R=always_highq, $C=1e4, $window=60, $variance=0.05, $mytime=180000"
attr mytime 180000
attr net barabasi_100nodes
attr network networks.${net=barabasi_100nodes}_network
attr processid 32161
attr rep 2
attr repetition 0
attr replication #0
attr resultdir results
attr runnumber 3
attr seedset 2
attr ttl 1000
attr variance 0.05
attr window 60

scalar . 	C 	1e4
scalar . 	a 	1
scalar . 	ctlg 	1e6
scalar . 	lambda 	100
scalar . 	mytime 	180000
scalar . 	rep 	2
scalar . 	ttl 	1000
scalar . 	variance 	0.05
scalar . 	window 	60
scalar barabasi_100nodes_network.content_distribution 	repo-0 	47
scalar barabasi_100nodes_network.content_distribution 	repo-1 	68
scalar barabasi_100nodes_network.content_distribution 	repo-2 	25
scalar barabasi_100nodes_network.content_distribution 	repo-3 	67
scalar barabasi_100nodes_network.content_distribution 	repo-4 	83
scalar barabasi_100nodes_network.content_distribution 	repo-5 	23
scalar barabasi_100nodes_network.content_distribution 	repo-6 	92
scalar barabasi_100nodes_network.content_distribution 	repo-7 	57
scalar barabasi_100nodes_network.content_distribution 	repo-8 	14
scalar barabasi_100nodes_network.content_distribution 	repo-9 	72
scalar barabasi_100nodes_network.content_distribution 	repo-10 	89
scalar barabasi_100nodes_network.content_distribution 	repo-11 	42
scalar barabasi_100nodes_network.content_distribution 	repo-12 	90
scalar barabasi_100nodes_network.content_distribution 	repo-13 	8
scalar barabasi_100nodes_network.content_distribution 	repo-14 	39
scalar barabasi_100nodes_network.content_distribution 	repo-15 	48
scalar barabasi_100nodes_network.content_distribution 	repo-16 	7
scalar barabasi_100nodes_network.content_distribution 	repo-17 	44
scalar barabasi_100nodes_network.content_distribution 	repo-18 	0
scalar barabasi_100nodes_network.content_distribution 	repo-19 	75
scalar barabasi_100nodes_network.content_distribution 	repo-20 	55
scalar barabasi_100nodes_network.content_distribution 	repo-21 	6
scalar barabasi_100nodes_network.content_distribution 	repo-22 	19
scalar barabasi_100nodes_network.content_distribution 	repo-23 	60
scalar barabasi_100nodes_network.content_distribution 	repo-24 	63
scalar barabasi_100nodes_network.content_distribution 	repo-25 	69
scalar barabasi_100nodes_network.content_distribution 	repo-26 	56
scalar barabasi_100nodes_network.content_distribution 	repo-27 	24
scalar barabasi_100nodes_network.content_distribution 	repo-28 	53
scalar barabasi_100nodes_network.content_distribution 	repo-29 	61
scalar barabasi_100nodes_network.content_distribution 	repo-30 	64
scalar barabasi_100nodes_network.content_distribution 	repo-31 	34
scalar barabasi_100nodes_network.content_distribution 	repo-32 	73
scalar barabasi_100nodes_network.content_distribution 	repo-33 	78
scalar barabasi_100nodes_network.content_distribution 	repo-34 	38
scalar barabasi_100nodes_network.content_distribution 	repo-35 	4
scalar barabasi_100nodes_network.content_distribution 	repo-36 	9
scalar barabasi_100nodes_network.content_distribution 	repo-37 	87
scalar barabasi_100nodes_network.content_distribution 	repo-38 	99
scalar barabasi_100nodes_network.content_distribution 	repo-39 	1
scalar barabasi_100nodes_network.content_distribution 	repo-40 	16
scalar barabasi_100nodes_network.content_distribution 	repo-41 	31
scalar barabasi_100nodes_network.content_distribution 	repo-42 	93
scalar barabasi_100nodes_network.content_distribution 	repo-43 	71
scalar barabasi_100nodes_network.content_distribution 	repo-44 	10
scalar barabasi_100nodes_network.content_distribution 	repo-45 	35
scalar barabasi_100nodes_network.content_distribution 	repo-46 	96
scalar barabasi_100nodes_network.content_distribution 	repo-47 	21
scalar barabasi_100nodes_network.content_distribution 	repo-48 	97
scalar barabasi_100nodes_network.content_distribution 	repo-49 	91
scalar barabasi_100nodes_network.content_distribution 	repo-50 	27
scalar barabasi_100nodes_network.content_distribution 	repo-51 	33
scalar barabasi_100nodes_network.content_distribution 	repo-52 	30
scalar barabasi_100nodes_network.content_distribution 	repo-53 	81
scalar barabasi_100nodes_network.content_distribution 	repo-54 	2
scalar barabasi_100nodes_network.content_distribution 	repo-55 	50
scalar barabasi_100nodes_network.content_distribution 	repo-56 	18
scalar barabasi_100nodes_network.content_distribution 	repo-57 	58
scalar barabasi_100nodes_network.content_distribution 	repo-58 	12
scalar barabasi_100nodes_network.content_distribution 	repo-59 	76
scalar barabasi_100nodes_network.content_distribution 	repo-60 	20
scalar barabasi_100nodes_network.content_distribution 	repo-61 	15
scalar barabasi_100nodes_network.content_distribution 	repo-62 	59
scalar barabasi_100nodes_network.content_distribution 	repo-63 	43
scalar barabasi_100nodes_network.content_distribution 	repo-64 	54
scalar barabasi_100nodes_network.content_distribution 	repo-65 	77
scalar barabasi_100nodes_network.content_distribution 	repo-66 	3
scalar barabasi_100nodes_network.content_distribution 	repo-67 	29
scalar barabasi_100nodes_network.content_distribution 	repo-68 	79
scalar barabasi_100nodes_network.content_distribution 	repo-69 	70
scalar barabasi_100nodes_network.content_distribution 	repo-70 	52
scalar barabasi_100nodes_network.content_distribution 	repo-71 	41
scalar barabasi_100nodes_network.content_distribution 	repo-72 	26
scalar barabasi_100nodes_network.content_distribution 	repo-73 	62
scalar barabasi_100nodes_network.content_distribution 	repo-74 	86
scalar barabasi_100nodes_network.content_distribution 	repo-75 	98
scalar barabasi_100nodes_network.content_distribution 	repo-76 	17
scalar barabasi_100nodes_network.content_distribution 	repo-77 	5
scalar barabasi_100nodes_network.content_distribution 	repo-78 	49
scalar barabasi_100nodes_network.content_distribution 	repo-79 	37
scalar barabasi_100nodes_network.content_distribution 	repo-80 	85
scalar barabasi_100nodes_network.content_distribution 	repo-81 	51
scalar barabasi_100nodes_network.content_distribution 	repo-82 	36
scalar barabasi_100nodes_network.content_distribution 	repo-83 	82
scalar barabasi_100nodes_network.content_distribution 	repo-84 	28
scalar barabasi_100nodes_network.content_distribution 	repo-85 	32
scalar barabasi_100nodes_network.content_distribution 	repo-86 	95
scalar barabasi_100nodes_network.content_distribution 	repo-87 	45
scalar barabasi_100nodes_network.content_distribution 	repo-88 	40
scalar barabasi_100nodes_network.content_distribution 	repo-89 	13
scalar barabasi_100nodes_network.content_distribution 	repo-90 	80
scalar barabasi_100nodes_network.content_distribution 	repo-91 	46
scalar barabasi_100nodes_network.content_distribution 	repo-92 	11
scalar barabasi_100nodes_network.content_distribution 	repo-93 	94
scalar barabasi_100nodes_network.content_distribution 	repo-94 	22
scalar barabasi_100nodes_network.content_distribution 	repo-95 	66
scalar barabasi_100nodes_network.content_distribution 	repo-96 	88
scalar barabasi_100nodes_network.content_distribution 	repo-97 	84
scalar barabasi_100nodes_network.content_distribution 	repo-98 	74
scalar barabasi_100nodes_network.content_distribution 	repo-99 	65
scalar barabasi_100nodes_network.content_distribution 	client-0 	85
scalar barabasi_100nodes_network.content_distribution 	client-1 	89
scalar barabasi_100nodes_network.content_distribution 	client-2 	52
scalar barabasi_100nodes_network.content_distribution 	client-3 	21
scalar barabasi_100nodes_network.content_distribution 	client-4 	37
scalar barabasi_100nodes_network.content_distribution 	client-5 	25
scalar barabasi_100nodes_network.content_distribution 	client-6 	68
scalar barabasi_100nodes_network.content_distribution 	client-7 	29
scalar barabasi_100nodes_network.content_distribution 	client-8 	22
scalar barabasi_100nodes_network.content_distribution 	client-9 	32
scalar barabasi_100nodes_network.content_distribution 	client-10 	63
scalar barabasi_100nodes_network.content_distribution 	client-11 	86
scalar barabasi_100nodes_network.content_distribution 	client-12 	98
scalar barabasi_100nodes_network.content_distribution 	client-13 	10
scalar barabasi_100nodes_network.content_distribution 	client-14 	77
scalar barabasi_100nodes_network.content_distribution 	client-15 	35
scalar barabasi_100nodes_network.content_distribution 	client-16 	33
scalar barabasi_100nodes_network.content_distribution 	client-17 	38
scalar barabasi_100nodes_network.content_distribution 	client-18 	80
scalar barabasi_100nodes_network.content_distribution 	client-19 	23
scalar barabasi_100nodes_network.content_distribution 	client-20 	0
scalar barabasi_100nodes_network.content_distribution 	client-21 	82
scalar barabasi_100nodes_network.content_distribution 	client-22 	73
scalar barabasi_100nodes_network.content_distribution 	client-23 	6
scalar barabasi_100nodes_network.content_distribution 	client-24 	17
scalar barabasi_100nodes_network.content_distribution 	client-25 	2
scalar barabasi_100nodes_network.content_distribution 	client-26 	14
scalar barabasi_100nodes_network.content_distribution 	client-27 	46
scalar barabasi_100nodes_network.content_distribution 	client-28 	66
scalar barabasi_100nodes_network.content_distribution 	client-29 	31
scalar barabasi_100nodes_network.content_distribution 	client-30 	8
scalar barabasi_100nodes_network.content_distribution 	client-31 	92
scalar barabasi_100nodes_network.content_distribution 	client-32 	41
scalar barabasi_100nodes_network.content_distribution 	client-33 	26
scalar barabasi_100nodes_network.content_distribution 	client-34 	18
scalar barabasi_100nodes_network.content_distribution 	client-35 	84
scalar barabasi_100nodes_network.content_distribution 	client-36 	55
scalar barabasi_100nodes_network.content_distribution 	client-37 	28
scalar barabasi_100nodes_network.content_distribution 	client-38 	79
scalar barabasi_100nodes_network.content_distribution 	client-39 	45
scalar barabasi_100nodes_network.content_distribution 	client-40 	97
scalar barabasi_100nodes_network.content_distribution 	client-41 	64
scalar barabasi_100nodes_network.content_distribution 	client-42 	1
scalar barabasi_100nodes_network.content_distribution 	client-43 	24
scalar barabasi_100nodes_network.content_distribution 	client-44 	58
scalar barabasi_100nodes_network.content_distribution 	client-45 	36
scalar barabasi_100nodes_network.content_distribution 	client-46 	42
scalar barabasi_100nodes_network.content_distribution 	client-47 	47
scalar barabasi_100nodes_network.content_distribution 	client-48 	43
scalar barabasi_100nodes_network.content_distribution 	client-49 	72
scalar barabasi_100nodes_network.content_distribution 	client-50 	87
scalar barabasi_100nodes_network.content_distribution 	client-51 	51
scalar barabasi_100nodes_network.content_distribution 	client-52 	27
scalar barabasi_100nodes_network.content_distribution 	client-53 	78
scalar barabasi_100nodes_network.content_distribution 	client-54 	61
scalar barabasi_100nodes_network.content_distribution 	client-55 	30
scalar barabasi_100nodes_network.content_distribution 	client-56 	76
scalar barabasi_100nodes_network.content_distribution 	client-57 	57
scalar barabasi_100nodes_network.content_distribution 	client-58 	59
scalar barabasi_100nodes_network.content_distribution 	client-59 	88
scalar barabasi_100nodes_network.content_distribution 	client-60 	50
scalar barabasi_100nodes_network.content_distribution 	client-61 	81
scalar barabasi_100nodes_network.content_distribution 	client-62 	4
scalar barabasi_100nodes_network.content_distribution 	client-63 	93
scalar barabasi_100nodes_network.content_distribution 	client-64 	75
scalar barabasi_100nodes_network.content_distribution 	client-65 	95
scalar barabasi_100nodes_network.content_distribution 	client-66 	3
scalar barabasi_100nodes_network.content_distribution 	client-67 	69
scalar barabasi_100nodes_network.content_distribution 	client-68 	62
scalar barabasi_100nodes_network.content_distribution 	client-69 	60
scalar barabasi_100nodes_network.content_distribution 	client-70 	44
scalar barabasi_100nodes_network.content_distribution 	client-71 	13
scalar barabasi_100nodes_network.content_distribution 	client-72 	96
scalar barabasi_100nodes_network.content_distribution 	client-73 	54
scalar barabasi_100nodes_network.content_distribution 	client-74 	65
scalar barabasi_100nodes_network.content_distribution 	client-75 	48
scalar barabasi_100nodes_network.content_distribution 	client-76 	94
scalar barabasi_100nodes_network.content_distribution 	client-77 	91
scalar barabasi_100nodes_network.content_distribution 	client-78 	74
scalar barabasi_100nodes_network.content_distribution 	client-79 	49
scalar barabasi_100nodes_network.content_distribution 	client-80 	40
scalar barabasi_100nodes_network.content_distribution 	client-81 	53
scalar barabasi_100nodes_network.content_distribution 	client-82 	71
scalar barabasi_100nodes_network.content_distribution 	client-83 	39
scalar barabasi_100nodes_network.content_distribution 	client-84 	56
scalar barabasi_100nodes_network.content_distribution 	client-85 	67
scalar barabasi_100nodes_network.content_distribution 	client-86 	16
scalar barabasi_100nodes_network.content_distribution 	client-87 	70
scalar barabasi_100nodes_network.content_distribution 	client-88 	7
scalar barabasi_100nodes_network.content_distribution 	client-89 	99
scalar barabasi_100nodes_network.content_distribution 	client-90 	90
scalar barabasi_100nodes_network.content_distribution 	client-91 	5
scalar barabasi_100nodes_network.content_distribution 	client-92 	83
scalar barabasi_100nodes_network.content_distribution 	client-93 	20
scalar barabasi_100nodes_network.content_distribution 	client-94 	11
scalar barabasi_100nodes_network.content_distribution 	client-95 	9
scalar barabasi_100nodes_network.content_distribution 	client-96 	19
scalar barabasi_100nodes_network.content_distribution 	client-97 	12
scalar barabasi_100nodes_network.content_distribution 	client-98 	15
scalar barabasi_100nodes_network.content_distribution 	client-99 	34
scalar barabasi_100nodes_network.content_distribution 	repo-0_card 	250135
scalar barabasi_100nodes_network.content_distribution 	repo-0_price 	0
scalar barabasi_100nodes_network.content_distribution 	repo-1_card 	249891
scalar barabasi_100nodes_network.content_distribution 	repo-1_price 	0
scalar barabasi_100nodes_network.content_distribution 	repo-2_card 	249908
scalar barabasi_100nodes_network.content_distribution 	repo-2_price 	0
scalar barabasi_100nodes_network.content_distribution 	repo-3_card 	250066
scalar barabasi_100nodes_network.content_distribution 	repo-3_price 	0
scalar barabasi_100nodes_network.content_distribution 	repo-4_card 	0
scalar barabasi_100nodes_network.content_distribution 	repo-4_price 	0
scalar barabasi_100nodes_network.content_distribution 	repo-5_card 	0
scalar barabasi_100nodes_network.content_distribution 	repo-5_price 	0
scalar barabasi_100nodes_network.content_distribution 	repo-6_card 	0
scalar barabasi_100nodes_network.content_distribution 	repo-6_price 	0
scalar barabasi_100nodes_network.content_distribution 	repo-7_card 	0
scalar barabasi_100nodes_network.content_distribution 	repo-7_price 	0
scalar barabasi_100nodes_network.content_distribution 	repo-8_card 	0
scalar barabasi_100nodes_network.content_distribution 	repo-8_price 	0
scalar barabasi_100nodes_network.content_distribution 	repo-9_card 	0
scalar barabasi_100nodes_network.content_distribution 	repo-9_price 	0
scalar barabasi_100nodes_network.content_distribution 	repo-10_card 	0
scalar barabasi_100nodes_network.content_distribution 	repo-10_price 	0
scalar barabasi_100nodes_network.content_distribution 	repo-11_card 	0
scalar barabasi_100nodes_network.content_distribution 	repo-11_price 	0
scalar barabasi_100nodes_network.content_distribution 	repo-12_card 	0
scalar barabasi_100nodes_network.content_distribution 	repo-12_price 	0
scalar barabasi_100nodes_network.content_distribution 	repo-13_card 	0
scalar barabasi_100nodes_network.content_distribution 	repo-13_price 	0
scalar barabasi_100nodes_network.content_distribution 	repo-14_card 	0
scalar barabasi_100nodes_network.content_distribution 	repo-14_price 	0
scalar barabasi_100nodes_network.content_distribution 	repo-15_card 	0
scalar barabasi_100nodes_network.content_distribution 	repo-15_price 	0
scalar barabasi_100nodes_network.content_distribution 	repo-16_card 	0
scalar barabasi_100nodes_network.content_distribution 	repo-16_price 	0
scalar barabasi_100nodes_network.content_distribution 	repo-17_card 	0
scalar barabasi_100nodes_network.content_distribution 	repo-17_price 	0
scalar barabasi_100nodes_network.content_distribution 	repo-18_card 	0
scalar barabasi_100nodes_network.content_distribution 	repo-18_price 	0
scalar barabasi_100nodes_network.content_distribution 	repo-19_card 	0
scalar barabasi_100nodes_network.content_distribution 	repo-19_price 	0
scalar barabasi_100nodes_network.content_distribution 	repo-20_card 	0
scalar barabasi_100nodes_network.content_distribution 	repo-20_price 	0
scalar barabasi_100nodes_network.content_distribution 	repo-21_card 	0
scalar barabasi_100nodes_network.content_distribution 	repo-21_price 	0
scalar barabasi_100nodes_network.content_distribution 	repo-22_card 	0
scalar barabasi_100nodes_network.content_distribution 	repo-22_price 	0
scalar barabasi_100nodes_network.content_distribution 	repo-23_card 	0
scalar barabasi_100nodes_network.content_distribution 	repo-23_price 	0
scalar barabasi_100nodes_network.content_distribution 	repo-24_card 	0
scalar barabasi_100nodes_network.content_distribution 	repo-24_price 	0
scalar barabasi_100nodes_network.content_distribution 	repo-25_card 	0
scalar barabasi_100nodes_network.content_distribution 	repo-25_price 	0
scalar barabasi_100nodes_network.content_distribution 	repo-26_card 	0
scalar barabasi_100nodes_network.content_distribution 	repo-26_price 	0
scalar barabasi_100nodes_network.content_distribution 	repo-27_card 	0
scalar barabasi_100nodes_network.content_distribution 	repo-27_price 	0
scalar barabasi_100nodes_network.content_distribution 	repo-28_card 	0
scalar barabasi_100nodes_network.content_distribution 	repo-28_price 	0
scalar barabasi_100nodes_network.content_distribution 	repo-29_card 	0
scalar barabasi_100nodes_network.content_distribution 	repo-29_price 	0
scalar barabasi_100nodes_network.content_distribution 	repo-30_card 	0
scalar barabasi_100nodes_network.content_distribution 	repo-30_price 	0
scalar barabasi_100nodes_network.content_distribution 	repo-31_card 	0
scalar barabasi_100nodes_network.content_distribution 	repo-31_price 	0
scalar barabasi_100nodes_network.content_distribution 	repo-32_card 	0
scalar barabasi_100nodes_network.content_distribution 	repo-32_price 	0
scalar barabasi_100nodes_network.content_distribution 	repo-33_card 	0
scalar barabasi_100nodes_network.content_distribution 	repo-33_price 	0
scalar barabasi_100nodes_network.content_distribution 	repo-34_card 	0
scalar barabasi_100nodes_network.content_distribution 	repo-34_price 	0
scalar barabasi_100nodes_network.content_distribution 	repo-35_card 	0
scalar barabasi_100nodes_network.content_distribution 	repo-35_price 	0
scalar barabasi_100nodes_network.content_distribution 	repo-36_card 	0
scalar barabasi_100nodes_network.content_distribution 	repo-36_price 	0
scalar barabasi_100nodes_network.content_distribution 	repo-37_card 	0
scalar barabasi_100nodes_network.content_distribution 	repo-37_price 	0
scalar barabasi_100nodes_network.content_distribution 	repo-38_card 	0
scalar barabasi_100nodes_network.content_distribution 	repo-38_price 	0
scalar barabasi_100nodes_network.content_distribution 	repo-39_card 	0
scalar barabasi_100nodes_network.content_distribution 	repo-39_price 	0
scalar barabasi_100nodes_network.content_distribution 	repo-40_card 	0
scalar barabasi_100nodes_network.content_distribution 	repo-40_price 	0
scalar barabasi_100nodes_network.content_distribution 	repo-41_card 	0
scalar barabasi_100nodes_network.content_distribution 	repo-41_price 	0
scalar barabasi_100nodes_network.content_distribution 	repo-42_card 	0
scalar barabasi_100nodes_network.content_distribution 	repo-42_price 	0
scalar barabasi_100nodes_network.content_distribution 	repo-43_card 	0
scalar barabasi_100nodes_network.content_distribution 	repo-43_price 	0
scalar barabasi_100nodes_network.content_distribution 	repo-44_card 	0
scalar barabasi_100nodes_network.content_distribution 	repo-44_price 	0
scalar barabasi_100nodes_network.content_distribution 	repo-45_card 	0
scalar barabasi_100nodes_network.content_distribution 	repo-45_price 	0
scalar barabasi_100nodes_network.content_distribution 	repo-46_card 	0
scalar barabasi_100nodes_network.content_distribution 	repo-46_price 	0
scalar barabasi_100nodes_network.content_distribution 	repo-47_card 	0
scalar barabasi_100nodes_network.content_distribution 	repo-47_price 	0
scalar barabasi_100nodes_network.content_distribution 	repo-48_card 	0
scalar barabasi_100nodes_network.content_distribution 	repo-48_price 	0
scalar barabasi_100nodes_network.content_distribution 	repo-49_card 	0
scalar barabasi_100nodes_network.content_distribution 	repo-49_price 	0
scalar barabasi_100nodes_network.content_distribution 	repo-50_card 	0
scalar barabasi_100nodes_network.content_distribution 	repo-50_price 	0
scalar barabasi_100nodes_network.content_distribution 	repo-51_card 	0
scalar barabasi_100nodes_network.content_distribution 	repo-51_price 	0
scalar barabasi_100nodes_network.content_distribution 	repo-52_card 	0
scalar barabasi_100nodes_network.content_distribution 	repo-52_price 	0
scalar barabasi_100nodes_network.content_distribution 	repo-53_card 	0
scalar barabasi_100nodes_network.content_distribution 	repo-53_price 	0
scalar barabasi_100nodes_network.content_distribution 	repo-54_card 	0
scalar barabasi_100nodes_network.content_distribution 	repo-54_price 	0
scalar barabasi_100nodes_network.content_distribution 	repo-55_card 	0
scalar barabasi_100nodes_network.content_distribution 	repo-55_price 	0
scalar barabasi_100nodes_network.content_distribution 	repo-56_card 	0
scalar barabasi_100nodes_network.content_distribution 	repo-56_price 	0
scalar barabasi_100nodes_network.content_distribution 	repo-57_card 	0
scalar barabasi_100nodes_network.content_distribution 	repo-57_price 	0
scalar barabasi_100nodes_network.content_distribution 	repo-58_card 	0
scalar barabasi_100nodes_network.content_distribution 	repo-58_price 	0
scalar barabasi_100nodes_network.content_distribution 	repo-59_card 	0
scalar barabasi_100nodes_network.content_distribution 	repo-59_price 	0
scalar barabasi_100nodes_network.content_distribution 	repo-60_card 	0
scalar barabasi_100nodes_network.content_distribution 	repo-60_price 	0
scalar barabasi_100nodes_network.content_distribution 	repo-61_card 	0
scalar barabasi_100nodes_network.content_distribution 	repo-61_price 	0
scalar barabasi_100nodes_network.content_distribution 	repo-62_card 	0
scalar barabasi_100nodes_network.content_distribution 	repo-62_price 	0
scalar barabasi_100nodes_network.content_distribution 	repo-63_card 	0
scalar barabasi_100nodes_network.content_distribution 	repo-63_price 	0
scalar barabasi_100nodes_network.content_distribution 	repo-64_card 	0
scalar barabasi_100nodes_network.content_distribution 	repo-64_price 	0
scalar barabasi_100nodes_network.content_distribution 	repo-65_card 	0
scalar barabasi_100nodes_network.content_distribution 	repo-65_price 	0
scalar barabasi_100nodes_network.content_distribution 	repo-66_card 	0
scalar barabasi_100nodes_network.content_distribution 	repo-66_price 	0
scalar barabasi_100nodes_network.content_distribution 	repo-67_card 	0
scalar barabasi_100nodes_network.content_distribution 	repo-67_price 	0
scalar barabasi_100nodes_network.content_distribution 	repo-68_card 	0
scalar barabasi_100nodes_network.content_distribution 	repo-68_price 	0
scalar barabasi_100nodes_network.content_distribution 	repo-69_card 	0
scalar barabasi_100nodes_network.content_distribution 	repo-69_price 	0
scalar barabasi_100nodes_network.content_distribution 	repo-70_card 	0
scalar barabasi_100nodes_network.content_distribution 	repo-70_price 	0
scalar barabasi_100nodes_network.content_distribution 	repo-71_card 	0
scalar barabasi_100nodes_network.content_distribution 	repo-71_price 	0
scalar barabasi_100nodes_network.content_distribution 	repo-72_card 	0
scalar barabasi_100nodes_network.content_distribution 	repo-72_price 	0
scalar barabasi_100nodes_network.content_distribution 	repo-73_card 	0
scalar barabasi_100nodes_network.content_distribution 	repo-73_price 	0
scalar barabasi_100nodes_network.content_distribution 	repo-74_card 	0
scalar barabasi_100nodes_network.content_distribution 	repo-74_price 	0
scalar barabasi_100nodes_network.content_distribution 	repo-75_card 	0
scalar barabasi_100nodes_network.content_distribution 	repo-75_price 	0
scalar barabasi_100nodes_network.content_distribution 	repo-76_card 	0
scalar barabasi_100nodes_network.content_distribution 	repo-76_price 	0
scalar barabasi_100nodes_network.content_distribution 	repo-77_card 	0
scalar barabasi_100nodes_network.content_distribution 	repo-77_price 	0
scalar barabasi_100nodes_network.content_distribution 	repo-78_card 	0
scalar barabasi_100nodes_network.content_distribution 	repo-78_price 	0
scalar barabasi_100nodes_network.content_distribution 	repo-79_card 	0
scalar barabasi_100nodes_network.content_distribution 	repo-79_price 	0
scalar barabasi_100nodes_network.content_distribution 	repo-80_card 	0
scalar barabasi_100nodes_network.content_distribution 	repo-80_price 	0
scalar barabasi_100nodes_network.content_distribution 	repo-81_card 	0
scalar barabasi_100nodes_network.content_distribution 	repo-81_price 	0
scalar barabasi_100nodes_network.content_distribution 	repo-82_card 	0
scalar barabasi_100nodes_network.content_distribution 	repo-82_price 	0
scalar barabasi_100nodes_network.content_distribution 	repo-83_card 	0
scalar barabasi_100nodes_network.content_distribution 	repo-83_price 	0
scalar barabasi_100nodes_network.content_distribution 	repo-84_card 	0
scalar barabasi_100nodes_network.content_distribution 	repo-84_price 	0
scalar barabasi_100nodes_network.content_distribution 	repo-85_card 	0
scalar barabasi_100nodes_network.content_distribution 	repo-85_price 	0
scalar barabasi_100nodes_network.content_distribution 	repo-86_card 	0
scalar barabasi_100nodes_network.content_distribution 	repo-86_price 	0
scalar barabasi_100nodes_network.content_distribution 	repo-87_card 	0
scalar barabasi_100nodes_network.content_distribution 	repo-87_price 	0
scalar barabasi_100nodes_network.content_distribution 	repo-88_card 	0
scalar barabasi_100nodes_network.content_distribution 	repo-88_price 	0
scalar barabasi_100nodes_network.content_distribution 	repo-89_card 	0
scalar barabasi_100nodes_network.content_distribution 	repo-89_price 	0
scalar barabasi_100nodes_network.content_distribution 	repo-90_card 	0
scalar barabasi_100nodes_network.content_distribution 	repo-90_price 	0
scalar barabasi_100nodes_network.content_distribution 	repo-91_card 	0
scalar barabasi_100nodes_network.content_distribution 	repo-91_price 	0
scalar barabasi_100nodes_network.content_distribution 	repo-92_card 	0
scalar barabasi_100nodes_network.content_distribution 	repo-92_price 	0
scalar barabasi_100nodes_network.content_distribution 	repo-93_card 	0
scalar barabasi_100nodes_network.content_distribution 	repo-93_price 	0
scalar barabasi_100nodes_network.content_distribution 	repo-94_card 	0
scalar barabasi_100nodes_network.content_distribution 	repo-94_price 	0
scalar barabasi_100nodes_network.content_distribution 	repo-95_card 	0
scalar barabasi_100nodes_network.content_distribution 	repo-95_price 	0
scalar barabasi_100nodes_network.content_distribution 	repo-96_card 	0
scalar barabasi_100nodes_network.content_distribution 	repo-96_price 	0
scalar barabasi_100nodes_network.content_distribution 	repo-97_card 	0
scalar barabasi_100nodes_network.content_distribution 	repo-97_price 	0
scalar barabasi_100nodes_network.content_distribution 	repo-98_card 	0
scalar barabasi_100nodes_network.content_distribution 	repo-98_price 	0
scalar barabasi_100nodes_network.content_distribution 	repo-99_card 	0
scalar barabasi_100nodes_network.content_distribution 	repo-99_price 	0
scalar barabasi_100nodes_network.statistics 	stabilization_time 	352.9
scalar barabasi_100nodes_network.statistics 	p_hit 	0.11891614007867
scalar barabasi_100nodes_network.statistics 	interests 	88915.18
scalar barabasi_100nodes_network.statistics 	data 	45160.43
scalar barabasi_100nodes_network.statistics 	hdistance 	1.8240249776445
scalar barabasi_100nodes_network.statistics 	avg_time 	0
scalar barabasi_100nodes_network.statistics 	downloads 	1678631
scalar barabasi_100nodes_network.statistics 	total_cost 	0
scalar barabasi_100nodes_network.statistics 	total_replicas 	1000000
scalar barabasi_100nodes_network.statistics 	"representations_downloaded 0.370115:0:0:0:0.629885:" 	0
scalar barabasi_100nodes_network.statistics 	"slots_per_representation 100:233:500:833:1167:" 	0
scalar barabasi_100nodes_network.statistics 	inner_hit 	2558.5426892509
scalar barabasi_100nodes_network.statistics 	execution_time 	495
scalar barabasi_100nodes_network.node[0].core_layer 	interests[0] 	450609
scalar barabasi_100nodes_network.node[0].core_layer 	data[0] 	296288
scalar barabasi_100nodes_network.node[0].core_layer 	slots_sent[face$o[1]->client[0]] 	12617746
scalar barabasi_100nodes_network.node[0].core_layer 	slots_sent[face$o[2]->node[1]] 	9496148
scalar barabasi_100nodes_network.node[0].core_layer 	slots_sent[face$o[3]->node[2]] 	0
scalar barabasi_100nodes_network.node[0].core_layer 	slots_sent[face$o[4]->node[5]] 	34787882
scalar barabasi_100nodes_network.node[0].core_layer 	slots_sent[face$o[5]->node[10]] 	18153067
scalar barabasi_100nodes_network.node[0].core_layer 	slots_sent[face$o[6]->node[11]] 	9280858
scalar barabasi_100nodes_network.node[0].core_layer 	slots_sent[face$o[7]->node[15]] 	26844358
scalar barabasi_100nodes_network.node[0].core_layer 	slots_sent[face$o[8]->node[21]] 	26865667
scalar barabasi_100nodes_network.node[0].core_layer 	slots_sent[face$o[9]->node[22]] 	9301830
scalar barabasi_100nodes_network.node[0].core_layer 	slots_sent[face$o[10]->node[28]] 	9501183
scalar barabasi_100nodes_network.node[0].core_layer 	slots_sent[face$o[11]->node[37]] 	9400489
scalar barabasi_100nodes_network.node[0].core_layer 	slots_sent[face$o[12]->node[44]] 	9445101
scalar barabasi_100nodes_network.node[0].core_layer 	slots_sent[face$o[13]->node[58]] 	17934841
scalar barabasi_100nodes_network.node[0].core_layer 	slots_sent[face$o[14]->node[73]] 	13020183
scalar barabasi_100nodes_network.node[0].core_layer 	slots_sent[face$o[15]->node[74]] 	6622211
scalar barabasi_100nodes_network.node[0].core_layer 	slots_sent[face$o[16]->node[93]] 	9232045
scalar barabasi_100nodes_network.node[0].content_store 	p_hit[0] 	0.055990892325719
scalar barabasi_100nodes_network.node[0].content_store 	hits[0] 	25230
scalar barabasi_100nodes_network.node[0].content_store 	misses[0] 	425379
scalar barabasi_100nodes_network.node[0].content_store 	decision_yes[0] 	160497
scalar barabasi_100nodes_network.node[0].content_store 	decision_no[0] 	135791
scalar barabasi_100nodes_network.node[0].content_store 	decision_ratio[0] 	0.54169254239119
scalar barabasi_100nodes_network.node[0].proactive_component 	hdistance[0].proactive_component 	3.9572693780725
scalar barabasi_100nodes_network.node[0].proactive_component 	downloads[0].proactive_component 	425339
scalar barabasi_100nodes_network.node[0].proactive_component 	avg_time[0].proactive_component 	0
scalar barabasi_100nodes_network.node[1].core_layer 	interests[1] 	22656
scalar barabasi_100nodes_network.node[1].core_layer 	data[1] 	13400
scalar barabasi_100nodes_network.node[1].core_layer 	slots_sent[face$o[1]->client[1]] 	13580648
scalar barabasi_100nodes_network.node[1].core_layer 	slots_sent[face$o[2]->node[0]] 	0
scalar barabasi_100nodes_network.node[1].content_store 	p_hit[1] 	0.40854519774011
scalar barabasi_100nodes_network.node[1].content_store 	hits[1] 	9256
scalar barabasi_100nodes_network.node[1].content_store 	misses[1] 	13400
scalar barabasi_100nodes_network.node[1].content_store 	decision_yes[1] 	7644
scalar barabasi_100nodes_network.node[1].content_store 	decision_no[1] 	5756
scalar barabasi_100nodes_network.node[1].content_store 	decision_ratio[1] 	0.57044776119403
scalar barabasi_100nodes_network.node[1].proactive_component 	hdistance[1].proactive_component 	4.9719605574836
scalar barabasi_100nodes_network.node[1].proactive_component 	downloads[1].proactive_component 	18153
scalar barabasi_100nodes_network.node[1].proactive_component 	avg_time[1].proactive_component 	0
scalar barabasi_100nodes_network.node[2].core_layer 	interests[2] 	1611654
scalar barabasi_100nodes_network.node[2].core_layer 	data[2] 	1058713
scalar barabasi_100nodes_network.node[2].core_layer 	slots_sent[face$o[1]->client[2]] 	11677657
scalar barabasi_100nodes_network.node[2].core_layer 	slots_sent[face$o[2]->node[0]] 	200879099
scalar barabasi_100nodes_network.node[2].core_layer 	slots_sent[face$o[3]->node[3]] 	12802598
scalar barabasi_100nodes_network.node[2].core_layer 	slots_sent[face$o[4]->node[4]] 	35625934
scalar barabasi_100nodes_network.node[2].core_layer 	slots_sent[face$o[5]->node[6]] 	9293088
scalar barabasi_100nodes_network.node[2].core_layer 	slots_sent[face$o[6]->node[7]] 	88492504
scalar barabasi_100nodes_network.node[2].core_layer 	slots_sent[face$o[7]->node[8]] 	68655066
scalar barabasi_100nodes_network.node[2].core_layer 	slots_sent[face$o[8]->node[13]] 	29279306
scalar barabasi_100nodes_network.node[2].core_layer 	slots_sent[face$o[9]->node[16]] 	60117022
scalar barabasi_100nodes_network.node[2].core_layer 	slots_sent[face$o[10]->node[18]] 	30086094
scalar barabasi_100nodes_network.node[2].core_layer 	slots_sent[face$o[11]->node[25]] 	13022456
scalar barabasi_100nodes_network.node[2].core_layer 	slots_sent[face$o[12]->node[26]] 	30549097
scalar barabasi_100nodes_network.node[2].core_layer 	slots_sent[face$o[13]->node[29]] 	6708826
scalar barabasi_100nodes_network.node[2].core_layer 	slots_sent[face$o[14]->node[32]] 	26596580
scalar barabasi_100nodes_network.node[2].core_layer 	slots_sent[face$o[15]->node[33]] 	9287054
scalar barabasi_100nodes_network.node[2].core_layer 	slots_sent[face$o[16]->node[34]] 	9458268
scalar barabasi_100nodes_network.node[2].core_layer 	slots_sent[face$o[17]->node[36]] 	18136050
scalar barabasi_100nodes_network.node[2].core_layer 	slots_sent[face$o[18]->node[41]] 	55612448
scalar barabasi_100nodes_network.node[2].core_layer 	slots_sent[face$o[19]->node[45]] 	9307526
scalar barabasi_100nodes_network.node[2].core_layer 	slots_sent[face$o[20]->node[59]] 	9365841
scalar barabasi_100nodes_network.node[2].core_layer 	slots_sent[face$o[21]->node[62]] 	21908855
scalar barabasi_100nodes_network.node[2].core_layer 	slots_sent[face$o[22]->node[79]] 	9408486
scalar barabasi_100nodes_network.node[2].content_store 	p_hit[2] 	0.03813659755754
scalar barabasi_100nodes_network.node[2].content_store 	hits[2] 	61463
scalar barabasi_100nodes_network.node[2].content_store 	misses[2] 	1550191
scalar barabasi_100nodes_network.node[2].content_store 	decision_yes[2] 	559819
scalar barabasi_100nodes_network.node[2].content_store 	decision_no[2] 	498894
scalar barabasi_100nodes_network.node[2].content_store 	decision_ratio[2] 	0.52877314248526
scalar barabasi_100nodes_network.node[2].proactive_component 	hdistance[2].proactive_component 	2.9178332789831
scalar barabasi_100nodes_network.node[2].proactive_component 	downloads[2].proactive_component 	1563930
scalar barabasi_100nodes_network.node[2].proactive_component 	avg_time[2].proactive_component 	0
scalar barabasi_100nodes_network.node[3].core_layer 	interests[3] 	43732
scalar barabasi_100nodes_network.node[3].core_layer 	repo_load[3] 	13366
scalar barabasi_100nodes_network.node[3].core_layer 	data[3] 	18189
scalar barabasi_100nodes_network.node[3].core_layer 	slots_sent[face$o[1]->client[3]] 	11181771
scalar barabasi_100nodes_network.node[3].core_layer 	slots_sent[face$o[2]->node[2]] 	0
scalar barabasi_100nodes_network.node[3].core_layer 	slots_sent[face$o[3]->node[52]] 	9419691
scalar barabasi_100nodes_network.node[3].content_store 	p_hit[3] 	0.18903777554194
scalar barabasi_100nodes_network.node[3].content_store 	hits[3] 	8267
scalar barabasi_100nodes_network.node[3].content_store 	misses[3] 	35465
scalar barabasi_100nodes_network.node[3].content_store 	decision_yes[3] 	10294
scalar barabasi_100nodes_network.node[3].content_store 	decision_no[3] 	21261
scalar barabasi_100nodes_network.node[3].content_store 	decision_ratio[3] 	0.32622405324037
scalar barabasi_100nodes_network.node[3].proactive_component 	hdistance[3].proactive_component 	2.9360531265238
scalar barabasi_100nodes_network.node[3].proactive_component 	downloads[3].proactive_component 	43067
scalar barabasi_100nodes_network.node[3].proactive_component 	avg_time[3].proactive_component 	0
scalar barabasi_100nodes_network.node[4].core_layer 	interests[4] 	116579
scalar barabasi_100nodes_network.node[4].core_layer 	repo_load[4] 	34530
scalar barabasi_100nodes_network.node[4].core_layer 	data[4] 	52143
scalar barabasi_100nodes_network.node[4].core_layer 	slots_sent[face$o[1]->client[4]] 	11165491
scalar barabasi_100nodes_network.node[4].core_layer 	slots_sent[face$o[2]->node[2]] 	0
scalar barabasi_100nodes_network.node[4].core_layer 	slots_sent[face$o[3]->node[27]] 	18379111
scalar barabasi_100nodes_network.node[4].core_layer 	slots_sent[face$o[4]->node[30]] 	15831960
scalar barabasi_100nodes_network.node[4].core_layer 	slots_sent[face$o[5]->node[85]] 	9536719
scalar barabasi_100nodes_network.node[4].content_store 	p_hit[4] 	0.093250070767462
scalar barabasi_100nodes_network.node[4].content_store 	hits[4] 	10871
scalar barabasi_100nodes_network.node[4].content_store 	misses[4] 	105708
scalar barabasi_100nodes_network.node[4].content_store 	decision_yes[4] 	28502
scalar barabasi_100nodes_network.node[4].content_store 	decision_no[4] 	58171
scalar barabasi_100nodes_network.node[4].content_store 	decision_ratio[4] 	0.32884519977386
scalar barabasi_100nodes_network.node[4].proactive_component 	hdistance[4].proactive_component 	2.8842238063309
scalar barabasi_100nodes_network.node[4].proactive_component 	downloads[4].proactive_component 	113348
scalar barabasi_100nodes_network.node[4].proactive_component 	avg_time[4].proactive_component 	0
scalar barabasi_100nodes_network.node[5].core_layer 	interests[5] 	76406
scalar barabasi_100nodes_network.node[5].core_layer 	data[5] 	49695
scalar barabasi_100nodes_network.node[5].core_layer 	slots_sent[face$o[1]->client[5]] 	13431204
scalar barabasi_100nodes_network.node[5].core_layer 	slots_sent[face$o[2]->node[0]] 	0
scalar barabasi_100nodes_network.node[5].core_layer 	slots_sent[face$o[3]->node[9]] 	9152231
scalar barabasi_100nodes_network.node[5].core_layer 	slots_sent[face$o[4]->node[35]] 	17995101
scalar barabasi_100nodes_network.node[5].content_store 	p_hit[5] 	0.14087898856111
scalar barabasi_100nodes_network.node[5].content_store 	hits[5] 	10764
scalar barabasi_100nodes_network.node[5].content_store 	misses[5] 	65642
scalar barabasi_100nodes_network.node[5].content_store 	decision_yes[5] 	27946
scalar barabasi_100nodes_network.node[5].content_store 	decision_no[5] 	21749
scalar barabasi_100nodes_network.node[5].content_store 	decision_ratio[5] 	0.56235033705604
scalar barabasi_100nodes_network.node[5].proactive_component 	hdistance[5].proactive_component 	4.9656759291828
scalar barabasi_100nodes_network.node[5].proactive_component 	downloads[5].proactive_component 	68232
scalar barabasi_100nodes_network.node[5].proactive_component 	avg_time[5].proactive_component 	0
scalar barabasi_100nodes_network.node[6].core_layer 	interests[6] 	22601
scalar barabasi_100nodes_network.node[6].core_layer 	data[6] 	13290
scalar barabasi_100nodes_network.node[6].core_layer 	slots_sent[face$o[1]->client[6]] 	13360083
scalar barabasi_100nodes_network.node[6].core_layer 	slots_sent[face$o[2]->node[2]] 	0
scalar barabasi_100nodes_network.node[6].content_store 	p_hit[6] 	0.41197292155214
scalar barabasi_100nodes_network.node[6].content_store 	hits[6] 	9311
scalar barabasi_100nodes_network.node[6].content_store 	misses[6] 	13290
scalar barabasi_100nodes_network.node[6].content_store 	decision_yes[6] 	7464
scalar barabasi_100nodes_network.node[6].content_store 	decision_no[6] 	5826
scalar barabasi_100nodes_network.node[6].content_store 	decision_ratio[6] 	0.56162528216704
scalar barabasi_100nodes_network.node[6].proactive_component 	hdistance[6].proactive_component 	3.958138283562
scalar barabasi_100nodes_network.node[6].proactive_component 	downloads[6].proactive_component 	18585
scalar barabasi_100nodes_network.node[6].proactive_component 	avg_time[6].proactive_component 	0
scalar barabasi_100nodes_network.node[7].core_layer 	interests[7] 	574299
scalar barabasi_100nodes_network.node[7].core_layer 	data[7] 	375077
scalar barabasi_100nodes_network.node[7].core_layer 	slots_sent[face$o[1]->client[7]] 	12403515
scalar barabasi_100nodes_network.node[7].core_layer 	slots_sent[face$o[2]->node[2]] 	163108621
scalar barabasi_100nodes_network.node[7].core_layer 	slots_sent[face$o[3]->node[23]] 	49382896
scalar barabasi_100nodes_network.node[7].core_layer 	slots_sent[face$o[4]->node[31]] 	28287130
scalar barabasi_100nodes_network.node[7].core_layer 	slots_sent[face$o[5]->node[49]] 	9544192
scalar barabasi_100nodes_network.node[7].core_layer 	slots_sent[face$o[6]->node[90]] 	9452100
scalar barabasi_100nodes_network.node[7].content_store 	p_hit[7] 	0.048516539293991
scalar barabasi_100nodes_network.node[7].content_store 	hits[7] 	27863
scalar barabasi_100nodes_network.node[7].content_store 	misses[7] 	546436
scalar barabasi_100nodes_network.node[7].content_store 	decision_yes[7] 	196909
scalar barabasi_100nodes_network.node[7].content_store 	decision_no[7] 	178168
scalar barabasi_100nodes_network.node[7].content_store 	decision_ratio[7] 	0.52498287018399
scalar barabasi_100nodes_network.node[7].proactive_component 	hdistance[7].proactive_component 	3.1952437591356
scalar barabasi_100nodes_network.node[7].proactive_component 	downloads[7].proactive_component 	558256
scalar barabasi_100nodes_network.node[7].proactive_component 	avg_time[7].proactive_component 	0
scalar barabasi_100nodes_network.node[8].core_layer 	interests[8] 	152478
scalar barabasi_100nodes_network.node[8].core_layer 	data[8] 	99722
scalar barabasi_100nodes_network.node[8].core_layer 	slots_sent[face$o[1]->client[8]] 	13096361
scalar barabasi_100nodes_network.node[8].core_layer 	slots_sent[face$o[2]->node[2]] 	0
scalar barabasi_100nodes_network.node[8].core_layer 	slots_sent[face$o[3]->node[12]] 	9385022
scalar barabasi_100nodes_network.node[8].core_layer 	slots_sent[face$o[4]->node[14]] 	9374753
scalar barabasi_100nodes_network.node[8].core_layer 	slots_sent[face$o[5]->node[17]] 	9163898
scalar barabasi_100nodes_network.node[8].core_layer 	slots_sent[face$o[6]->node[39]] 	18173646
scalar barabasi_100nodes_network.node[8].core_layer 	slots_sent[face$o[7]->node[61]] 	9498153
scalar barabasi_100nodes_network.node[8].core_layer 	slots_sent[face$o[8]->node[66]] 	9336577
scalar barabasi_100nodes_network.node[8].content_store 	p_hit[8] 	0.093947979380632
scalar barabasi_100nodes_network.node[8].content_store 	hits[8] 	14325
scalar barabasi_100nodes_network.node[8].content_store 	misses[8] 	138153
scalar barabasi_100nodes_network.node[8].content_store 	decision_yes[8] 	54998
scalar barabasi_100nodes_network.node[8].content_store 	decision_no[8] 	44724
scalar barabasi_100nodes_network.node[8].content_store 	decision_ratio[8] 	0.55151320671467
scalar barabasi_100nodes_network.node[8].proactive_component 	hdistance[8].proactive_component 	3.9629867580398
scalar barabasi_100nodes_network.node[8].proactive_component 	downloads[8].proactive_component 	140085
scalar barabasi_100nodes_network.node[8].proactive_component 	avg_time[8].proactive_component 	0
scalar barabasi_100nodes_network.node[9].core_layer 	interests[9] 	22013
scalar barabasi_100nodes_network.node[9].core_layer 	data[9] 	12639
scalar barabasi_100nodes_network.node[9].core_layer 	slots_sent[face$o[1]->client[9]] 	13969607
scalar barabasi_100nodes_network.node[9].core_layer 	slots_sent[face$o[2]->node[5]] 	0
scalar barabasi_100nodes_network.node[9].content_store 	p_hit[9] 	0.42583927679099
scalar barabasi_100nodes_network.node[9].content_store 	hits[9] 	9374
scalar barabasi_100nodes_network.node[9].content_store 	misses[9] 	12639
scalar barabasi_100nodes_network.node[9].content_store 	decision_yes[9] 	7393
scalar barabasi_100nodes_network.node[9].content_store 	decision_no[9] 	5246
scalar barabasi_100nodes_network.node[9].content_store 	decision_ratio[9] 	0.5849355170504
scalar barabasi_100nodes_network.node[9].proactive_component 	hdistance[9].proactive_component 	5.9639304973038
scalar barabasi_100nodes_network.node[9].proactive_component 	downloads[9].proactive_component 	16690
scalar barabasi_100nodes_network.node[9].proactive_component 	avg_time[9].proactive_component 	0
scalar barabasi_100nodes_network.node[10].core_layer 	interests[10] 	40767
scalar barabasi_100nodes_network.node[10].core_layer 	data[10] 	25738
scalar barabasi_100nodes_network.node[10].core_layer 	slots_sent[face$o[1]->client[10]] 	13497524
scalar barabasi_100nodes_network.node[10].core_layer 	slots_sent[face$o[2]->node[0]] 	0
scalar barabasi_100nodes_network.node[10].core_layer 	slots_sent[face$o[3]->node[71]] 	9197507
scalar barabasi_100nodes_network.node[10].content_store 	p_hit[10] 	0.23688277283097
scalar barabasi_100nodes_network.node[10].content_store 	hits[10] 	9657
scalar barabasi_100nodes_network.node[10].content_store 	misses[10] 	31110
scalar barabasi_100nodes_network.node[10].content_store 	decision_yes[10] 	14601
scalar barabasi_100nodes_network.node[10].content_store 	decision_no[10] 	11137
scalar barabasi_100nodes_network.node[10].content_store 	decision_ratio[10] 	0.56729349599814
scalar barabasi_100nodes_network.node[10].proactive_component 	hdistance[10].proactive_component 	4.9706315515897
scalar barabasi_100nodes_network.node[10].proactive_component 	downloads[10].proactive_component 	34629
scalar barabasi_100nodes_network.node[10].proactive_component 	avg_time[10].proactive_component 	0
scalar barabasi_100nodes_network.node[11].core_layer 	interests[11] 	22437
scalar barabasi_100nodes_network.node[11].core_layer 	data[11] 	13061
scalar barabasi_100nodes_network.node[11].core_layer 	slots_sent[face$o[1]->client[11]] 	13702621
scalar barabasi_100nodes_network.node[11].core_layer 	slots_sent[face$o[2]->node[0]] 	0
scalar barabasi_100nodes_network.node[11].content_store 	p_hit[11] 	0.41788117841066
scalar barabasi_100nodes_network.node[11].content_store 	hits[11] 	9376
scalar barabasi_100nodes_network.node[11].content_store 	misses[11] 	13061
scalar barabasi_100nodes_network.node[11].content_store 	decision_yes[11] 	7474
scalar barabasi_100nodes_network.node[11].content_store 	decision_no[11] 	5587
scalar barabasi_100nodes_network.node[11].content_store 	decision_ratio[11] 	0.57223796033994
scalar barabasi_100nodes_network.node[11].proactive_component 	hdistance[11].proactive_component 	4.9698594570187
scalar barabasi_100nodes_network.node[11].proactive_component 	downloads[11].proactive_component 	17717
scalar barabasi_100nodes_network.node[11].proactive_component 	avg_time[11].proactive_component 	0
scalar barabasi_100nodes_network.node[12].core_layer 	interests[12] 	22334
scalar barabasi_100nodes_network.node[12].core_layer 	data[12] 	13121
scalar barabasi_100nodes_network.node[12].core_layer 	slots_sent[face$o[1]->client[12]] 	13653908
scalar barabasi_100nodes_network.node[12].core_layer 	slots_sent[face$o[2]->node[8]] 	0
scalar barabasi_100nodes_network.node[12].content_store 	p_hit[12] 	0.41251007432614
scalar barabasi_100nodes_network.node[12].content_store 	hits[12] 	9213
scalar barabasi_100nodes_network.node[12].content_store 	misses[12] 	13121
scalar barabasi_100nodes_network.node[12].content_store 	decision_yes[12] 	7566
scalar barabasi_100nodes_network.node[12].content_store 	decision_no[12] 	5555
scalar barabasi_100nodes_network.node[12].content_store 	decision_ratio[12] 	0.57663287859157
scalar barabasi_100nodes_network.node[12].proactive_component 	hdistance[12].proactive_component 	4.959926827874
scalar barabasi_100nodes_network.node[12].proactive_component 	downloads[12].proactive_component 	17493
scalar barabasi_100nodes_network.node[12].proactive_component 	avg_time[12].proactive_component 	0
scalar barabasi_100nodes_network.node[13].core_layer 	interests[13] 	446538
scalar barabasi_100nodes_network.node[13].core_layer 	data[13] 	285104
scalar barabasi_100nodes_network.node[13].core_layer 	slots_sent[face$o[1]->client[13]] 	11820311
scalar barabasi_100nodes_network.node[13].core_layer 	slots_sent[face$o[2]->node[2]] 	170386223
scalar barabasi_100nodes_network.node[13].core_layer 	slots_sent[face$o[3]->node[67]] 	6897110
scalar barabasi_100nodes_network.node[13].core_layer 	slots_sent[face$o[4]->node[78]] 	19331094
scalar barabasi_100nodes_network.node[13].content_store 	p_hit[13] 	0.063656396544079
scalar barabasi_100nodes_network.node[13].content_store 	hits[13] 	28425
scalar barabasi_100nodes_network.node[13].content_store 	misses[13] 	418113
scalar barabasi_100nodes_network.node[13].content_store 	decision_yes[13] 	145142
scalar barabasi_100nodes_network.node[13].content_store 	decision_no[13] 	139962
scalar barabasi_100nodes_network.node[13].content_store 	decision_ratio[13] 	0.50908440428756
scalar barabasi_100nodes_network.node[13].proactive_component 	hdistance[13].proactive_component 	2.2515392465053
scalar barabasi_100nodes_network.node[13].proactive_component 	downloads[13].proactive_component 	438039
scalar barabasi_100nodes_network.node[13].proactive_component 	avg_time[13].proactive_component 	0
scalar barabasi_100nodes_network.node[14].core_layer 	interests[14] 	22363
scalar barabasi_100nodes_network.node[14].core_layer 	data[14] 	13093
scalar barabasi_100nodes_network.node[14].core_layer 	slots_sent[face$o[1]->client[14]] 	13734665
scalar barabasi_100nodes_network.node[14].core_layer 	slots_sent[face$o[2]->node[8]] 	0
scalar barabasi_100nodes_network.node[14].content_store 	p_hit[14] 	0.41452399052006
scalar barabasi_100nodes_network.node[14].content_store 	hits[14] 	9270
scalar barabasi_100nodes_network.node[14].content_store 	misses[14] 	13093
scalar barabasi_100nodes_network.node[14].content_store 	decision_yes[14] 	7559
scalar barabasi_100nodes_network.node[14].content_store 	decision_no[14] 	5534
scalar barabasi_100nodes_network.node[14].content_store 	decision_ratio[14] 	0.57733139845719
scalar barabasi_100nodes_network.node[14].proactive_component 	hdistance[14].proactive_component 	4.9608577852078
scalar barabasi_100nodes_network.node[14].proactive_component 	downloads[14].proactive_component 	17347
scalar barabasi_100nodes_network.node[14].proactive_component 	avg_time[14].proactive_component 	0
scalar barabasi_100nodes_network.node[15].core_layer 	interests[15] 	59516
scalar barabasi_100nodes_network.node[15].core_layer 	data[15] 	38249
scalar barabasi_100nodes_network.node[15].core_layer 	slots_sent[face$o[1]->client[15]] 	13547235
scalar barabasi_100nodes_network.node[15].core_layer 	slots_sent[face$o[2]->node[0]] 	0
scalar barabasi_100nodes_network.node[15].core_layer 	slots_sent[face$o[3]->node[40]] 	9328844
scalar barabasi_100nodes_network.node[15].core_layer 	slots_sent[face$o[4]->node[56]] 	9327143
scalar barabasi_100nodes_network.node[15].content_store 	p_hit[15] 	0.17590227837892
scalar barabasi_100nodes_network.node[15].content_store 	hits[15] 	10469
scalar barabasi_100nodes_network.node[15].content_store 	misses[15] 	49047
scalar barabasi_100nodes_network.node[15].content_store 	decision_yes[15] 	21574
scalar barabasi_100nodes_network.node[15].content_store 	decision_no[15] 	16675
scalar barabasi_100nodes_network.node[15].content_store 	decision_ratio[15] 	0.56404088995791
scalar barabasi_100nodes_network.node[15].proactive_component 	hdistance[15].proactive_component 	4.9673707349708
scalar barabasi_100nodes_network.node[15].proactive_component 	downloads[15].proactive_component 	52315
scalar barabasi_100nodes_network.node[15].proactive_component 	avg_time[15].proactive_component 	0
scalar barabasi_100nodes_network.node[16].core_layer 	interests[16] 	131450
scalar barabasi_100nodes_network.node[16].core_layer 	data[16] 	87239
scalar barabasi_100nodes_network.node[16].core_layer 	slots_sent[face$o[1]->client[16]] 	12974132
scalar barabasi_100nodes_network.node[16].core_layer 	slots_sent[face$o[2]->node[2]] 	0
scalar barabasi_100nodes_network.node[16].core_layer 	slots_sent[face$o[3]->node[19]] 	43692930
scalar barabasi_100nodes_network.node[16].core_layer 	slots_sent[face$o[4]->node[20]] 	9446006
scalar barabasi_100nodes_network.node[16].content_store 	p_hit[16] 	0.08538607835679
scalar barabasi_100nodes_network.node[16].content_store 	hits[16] 	11224
scalar barabasi_100nodes_network.node[16].content_store 	misses[16] 	120226
scalar barabasi_100nodes_network.node[16].content_store 	decision_yes[16] 	48166
scalar barabasi_100nodes_network.node[16].content_store 	decision_no[16] 	39073
scalar barabasi_100nodes_network.node[16].content_store 	decision_ratio[16] 	0.55211545295109
scalar barabasi_100nodes_network.node[16].proactive_component 	hdistance[16].proactive_component 	3.9604708391436
scalar barabasi_100nodes_network.node[16].proactive_component 	downloads[16].proactive_component 	121910
scalar barabasi_100nodes_network.node[16].proactive_component 	avg_time[16].proactive_component 	0
scalar barabasi_100nodes_network.node[17].core_layer 	interests[17] 	22078
scalar barabasi_100nodes_network.node[17].core_layer 	data[17] 	12745
scalar barabasi_100nodes_network.node[17].core_layer 	slots_sent[face$o[1]->client[17]] 	13810892
scalar barabasi_100nodes_network.node[17].core_layer 	slots_sent[face$o[2]->node[8]] 	0
scalar barabasi_100nodes_network.node[17].content_store 	p_hit[17] 	0.42272850801703
scalar barabasi_100nodes_network.node[17].content_store 	hits[17] 	9333
scalar barabasi_100nodes_network.node[17].content_store 	misses[17] 	12745
scalar barabasi_100nodes_network.node[17].content_store 	decision_yes[17] 	7394
scalar barabasi_100nodes_network.node[17].content_store 	decision_no[17] 	5351
scalar barabasi_100nodes_network.node[17].content_store 	decision_ratio[17] 	0.58014907806983
scalar barabasi_100nodes_network.node[17].proactive_component 	hdistance[17].proactive_component 	4.9757765414928
scalar barabasi_100nodes_network.node[17].proactive_component 	downloads[17].proactive_component 	17256
scalar barabasi_100nodes_network.node[17].proactive_component 	avg_time[17].proactive_component 	0
scalar barabasi_100nodes_network.node[18].core_layer 	interests[18] 	459405
scalar barabasi_100nodes_network.node[18].core_layer 	data[18] 	292945
scalar barabasi_100nodes_network.node[18].core_layer 	slots_sent[face$o[1]->client[18]] 	11986817
scalar barabasi_100nodes_network.node[18].core_layer 	slots_sent[face$o[2]->node[2]] 	177453817
scalar barabasi_100nodes_network.node[18].core_layer 	slots_sent[face$o[3]->node[53]] 	9595902
scalar barabasi_100nodes_network.node[18].core_layer 	slots_sent[face$o[4]->node[68]] 	6602632
scalar barabasi_100nodes_network.node[18].core_layer 	slots_sent[face$o[5]->node[72]] 	9438327
scalar barabasi_100nodes_network.node[18].content_store 	p_hit[18] 	0.065282267280504
scalar barabasi_100nodes_network.node[18].content_store 	hits[18] 	29991
scalar barabasi_100nodes_network.node[18].content_store 	misses[18] 	429414
scalar barabasi_100nodes_network.node[18].content_store 	decision_yes[18] 	149235
scalar barabasi_100nodes_network.node[18].content_store 	decision_no[18] 	143710
scalar barabasi_100nodes_network.node[18].content_store 	decision_ratio[18] 	0.50943009779993
scalar barabasi_100nodes_network.node[18].proactive_component 	hdistance[18].proactive_component 	2.2484162986351
scalar barabasi_100nodes_network.node[18].proactive_component 	downloads[18].proactive_component 	450369
scalar barabasi_100nodes_network.node[18].proactive_component 	avg_time[18].proactive_component 	0
scalar barabasi_100nodes_network.node[19].core_layer 	interests[19] 	96141
scalar barabasi_100nodes_network.node[19].core_layer 	data[19] 	62519
scalar barabasi_100nodes_network.node[19].core_layer 	slots_sent[face$o[1]->client[19]] 	13354050
scalar barabasi_100nodes_network.node[19].core_layer 	slots_sent[face$o[2]->node[16]] 	0
scalar barabasi_100nodes_network.node[19].core_layer 	slots_sent[face$o[3]->node[63]] 	9401831
scalar barabasi_100nodes_network.node[19].core_layer 	slots_sent[face$o[4]->node[70]] 	9436208
scalar barabasi_100nodes_network.node[19].core_layer 	slots_sent[face$o[5]->node[80]] 	9407065
scalar barabasi_100nodes_network.node[19].core_layer 	slots_sent[face$o[6]->node[89]] 	9321007
scalar barabasi_100nodes_network.node[19].content_store 	p_hit[19] 	0.12426540185769
scalar barabasi_100nodes_network.node[19].content_store 	hits[19] 	11947
scalar barabasi_100nodes_network.node[19].content_store 	misses[19] 	84194
scalar barabasi_100nodes_network.node[19].content_store 	decision_yes[19] 	35090
scalar barabasi_100nodes_network.node[19].content_store 	decision_no[19] 	27429
scalar barabasi_100nodes_network.node[19].content_store 	decision_ratio[19] 	0.56126937411027
scalar barabasi_100nodes_network.node[19].proactive_component 	hdistance[19].proactive_component 	4.9648659697484
scalar barabasi_100nodes_network.node[19].proactive_component 	downloads[19].proactive_component 	85615
scalar barabasi_100nodes_network.node[19].proactive_component 	avg_time[19].proactive_component 	0
scalar barabasi_100nodes_network.node[20].core_layer 	interests[20] 	22422
scalar barabasi_100nodes_network.node[20].core_layer 	data[20] 	13176
scalar barabasi_100nodes_network.node[20].core_layer 	slots_sent[face$o[1]->client[20]] 	13749902
scalar barabasi_100nodes_network.node[20].core_layer 	slots_sent[face$o[2]->node[16]] 	0
scalar barabasi_100nodes_network.node[20].content_store 	p_hit[20] 	0.41236285790741
scalar barabasi_100nodes_network.node[20].content_store 	hits[20] 	9246
scalar barabasi_100nodes_network.node[20].content_store 	misses[20] 	13176
scalar barabasi_100nodes_network.node[20].content_store 	decision_yes[20] 	7618
scalar barabasi_100nodes_network.node[20].content_store 	decision_no[20] 	5558
scalar barabasi_100nodes_network.node[20].content_store 	decision_ratio[20] 	0.57817243472981
scalar barabasi_100nodes_network.node[20].proactive_component 	hdistance[20].proactive_component 	4.9594477499856
scalar barabasi_100nodes_network.node[20].proactive_component 	downloads[20].proactive_component 	17311
scalar barabasi_100nodes_network.node[20].proactive_component 	avg_time[20].proactive_component 	0
scalar barabasi_100nodes_network.node[21].core_layer 	interests[21] 	59403
scalar barabasi_100nodes_network.node[21].core_layer 	data[21] 	38174
scalar barabasi_100nodes_network.node[21].core_layer 	slots_sent[face$o[1]->client[21]] 	13503022
scalar barabasi_100nodes_network.node[21].core_layer 	slots_sent[face$o[2]->node[0]] 	0
scalar barabasi_100nodes_network.node[21].core_layer 	slots_sent[face$o[3]->node[24]] 	9362789
scalar barabasi_100nodes_network.node[21].core_layer 	slots_sent[face$o[4]->node[57]] 	9433408
scalar barabasi_100nodes_network.node[21].content_store 	p_hit[21] 	0.17753312122283
scalar barabasi_100nodes_network.node[21].content_store 	hits[21] 	10546
scalar barabasi_100nodes_network.node[21].content_store 	misses[21] 	48857
scalar barabasi_100nodes_network.node[21].content_store 	decision_yes[21] 	21601
scalar barabasi_100nodes_network.node[21].content_store 	decision_no[21] 	16573
scalar barabasi_100nodes_network.node[21].content_store 	decision_ratio[21] 	0.56585634201289
scalar barabasi_100nodes_network.node[21].proactive_component 	hdistance[21].proactive_component 	4.967938695543
scalar barabasi_100nodes_network.node[21].proactive_component 	downloads[21].proactive_component 	51807
scalar barabasi_100nodes_network.node[21].proactive_component 	avg_time[21].proactive_component 	0
scalar barabasi_100nodes_network.node[22].core_layer 	interests[22] 	22239
scalar barabasi_100nodes_network.node[22].core_layer 	data[22] 	13100
scalar barabasi_100nodes_network.node[22].core_layer 	slots_sent[face$o[1]->client[22]] 	13420173
scalar barabasi_100nodes_network.node[22].core_layer 	slots_sent[face$o[2]->node[0]] 	0
scalar barabasi_100nodes_network.node[22].content_store 	p_hit[22] 	0.41094473672377
scalar barabasi_100nodes_network.node[22].content_store 	hits[22] 	9139
scalar barabasi_100nodes_network.node[22].content_store 	misses[22] 	13100
scalar barabasi_100nodes_network.node[22].content_store 	decision_yes[22] 	7490
scalar barabasi_100nodes_network.node[22].content_store 	decision_no[22] 	5610
scalar barabasi_100nodes_network.node[22].content_store 	decision_ratio[22] 	0.57175572519084
scalar barabasi_100nodes_network.node[22].proactive_component 	hdistance[22].proactive_component 	4.9644844057319
scalar barabasi_100nodes_network.node[22].proactive_component 	downloads[22].proactive_component 	17795
scalar barabasi_100nodes_network.node[22].proactive_component 	avg_time[22].proactive_component 	0
scalar barabasi_100nodes_network.node[23].core_layer 	interests[23] 	499502
scalar barabasi_100nodes_network.node[23].core_layer 	data[23] 	330212
scalar barabasi_100nodes_network.node[23].core_layer 	slots_sent[face$o[1]->client[23]] 	12071847
scalar barabasi_100nodes_network.node[23].core_layer 	slots_sent[face$o[2]->node[7]] 	159117099
scalar barabasi_100nodes_network.node[23].core_layer 	slots_sent[face$o[3]->node[46]] 	18190971
scalar barabasi_100nodes_network.node[23].core_layer 	slots_sent[face$o[4]->node[47]] 	6699894
scalar barabasi_100nodes_network.node[23].core_layer 	slots_sent[face$o[5]->node[51]] 	9403622
scalar barabasi_100nodes_network.node[23].core_layer 	slots_sent[face$o[6]->node[83]] 	9262883
scalar barabasi_100nodes_network.node[23].core_layer 	slots_sent[face$o[7]->node[86]] 	9397653
scalar barabasi_100nodes_network.node[23].content_store 	p_hit[23] 	0.031497371381896
scalar barabasi_100nodes_network.node[23].content_store 	hits[23] 	15733
scalar barabasi_100nodes_network.node[23].content_store 	misses[23] 	483769
scalar barabasi_100nodes_network.node[23].content_store 	decision_yes[23] 	169615
scalar barabasi_100nodes_network.node[23].content_store 	decision_no[23] 	160597
scalar barabasi_100nodes_network.node[23].content_store 	decision_ratio[23] 	0.51365486414788
scalar barabasi_100nodes_network.node[23].proactive_component 	hdistance[23].proactive_component 	2.5048574357507
scalar barabasi_100nodes_network.node[23].proactive_component 	downloads[23].proactive_component 	503352
scalar barabasi_100nodes_network.node[23].proactive_component 	avg_time[23].proactive_component 	0
scalar barabasi_100nodes_network.node[24].core_layer 	interests[24] 	22039
scalar barabasi_100nodes_network.node[24].core_layer 	data[24] 	12888
scalar barabasi_100nodes_network.node[24].core_layer 	slots_sent[face$o[1]->client[24]] 	13832399
scalar barabasi_100nodes_network.node[24].core_layer 	slots_sent[face$o[2]->node[21]] 	0
scalar barabasi_100nodes_network.node[24].content_store 	p_hit[24] 	0.4152184763374
scalar barabasi_100nodes_network.node[24].content_store 	hits[24] 	9151
scalar barabasi_100nodes_network.node[24].content_store 	misses[24] 	12888
scalar barabasi_100nodes_network.node[24].content_store 	decision_yes[24] 	7567
scalar barabasi_100nodes_network.node[24].content_store 	decision_no[24] 	5321
scalar barabasi_100nodes_network.node[24].content_store 	decision_ratio[24] 	0.58713531967722
scalar barabasi_100nodes_network.node[24].proactive_component 	hdistance[24].proactive_component 	5.9769455892015
scalar barabasi_100nodes_network.node[24].proactive_component 	downloads[24].proactive_component 	16743
scalar barabasi_100nodes_network.node[24].proactive_component 	avg_time[24].proactive_component 	0
scalar barabasi_100nodes_network.node[25].core_layer 	interests[25] 	492804
scalar barabasi_100nodes_network.node[25].core_layer 	repo_load[25] 	462503
scalar barabasi_100nodes_network.node[25].core_layer 	data[25] 	18531
scalar barabasi_100nodes_network.node[25].core_layer 	slots_sent[face$o[1]->client[25]] 	11048664
scalar barabasi_100nodes_network.node[25].core_layer 	slots_sent[face$o[2]->node[2]] 	192249612
scalar barabasi_100nodes_network.node[25].core_layer 	slots_sent[face$o[3]->node[38]] 	6664561
scalar barabasi_100nodes_network.node[25].content_store 	p_hit[25] 	0.016119999025982
scalar barabasi_100nodes_network.node[25].content_store 	hits[25] 	7944
scalar barabasi_100nodes_network.node[25].content_store 	misses[25] 	484860
scalar barabasi_100nodes_network.node[25].content_store 	decision_yes[25] 	10468
scalar barabasi_100nodes_network.node[25].content_store 	decision_no[25] 	470566
scalar barabasi_100nodes_network.node[25].content_store 	decision_ratio[25] 	0.02176145553121
scalar barabasi_100nodes_network.node[25].proactive_component 	hdistance[25].proactive_component 	1.1646063088099
scalar barabasi_100nodes_network.node[25].proactive_component 	downloads[25].proactive_component 	512775
scalar barabasi_100nodes_network.node[25].proactive_component 	avg_time[25].proactive_component 	0
scalar barabasi_100nodes_network.node[26].core_layer 	interests[26] 	68340
scalar barabasi_100nodes_network.node[26].core_layer 	data[26] 	44172
scalar barabasi_100nodes_network.node[26].core_layer 	slots_sent[face$o[1]->client[26]] 	13319396
scalar barabasi_100nodes_network.node[26].core_layer 	slots_sent[face$o[2]->node[2]] 	0
scalar barabasi_100nodes_network.node[26].core_layer 	slots_sent[face$o[3]->node[77]] 	13155692
scalar barabasi_100nodes_network.node[26].core_layer 	slots_sent[face$o[4]->node[91]] 	9310338
scalar barabasi_100nodes_network.node[26].content_store 	p_hit[26] 	0.15537020778461
scalar barabasi_100nodes_network.node[26].content_store 	hits[26] 	10618
scalar barabasi_100nodes_network.node[26].content_store 	misses[26] 	57722
scalar barabasi_100nodes_network.node[26].content_store 	decision_yes[26] 	24491
scalar barabasi_100nodes_network.node[26].content_store 	decision_no[26] 	19681
scalar barabasi_100nodes_network.node[26].content_store 	decision_ratio[26] 	0.5544462555465
scalar barabasi_100nodes_network.node[26].proactive_component 	hdistance[26].proactive_component 	3.9487523868086
scalar barabasi_100nodes_network.node[26].proactive_component 	downloads[26].proactive_component 	61798
scalar barabasi_100nodes_network.node[26].proactive_component 	avg_time[26].proactive_component 	0
scalar barabasi_100nodes_network.node[27].core_layer 	interests[27] 	41954
scalar barabasi_100nodes_network.node[27].core_layer 	data[27] 	26590
scalar barabasi_100nodes_network.node[27].core_layer 	slots_sent[face$o[1]->client[27]] 	13148744
scalar barabasi_100nodes_network.node[27].core_layer 	slots_sent[face$o[2]->node[4]] 	0
scalar barabasi_100nodes_network.node[27].core_layer 	slots_sent[face$o[3]->node[99]] 	9323036
scalar barabasi_100nodes_network.node[27].content_store 	p_hit[27] 	0.232445058874
scalar barabasi_100nodes_network.node[27].content_store 	hits[27] 	9752
scalar barabasi_100nodes_network.node[27].content_store 	misses[27] 	32202
scalar barabasi_100nodes_network.node[27].content_store 	decision_yes[27] 	14733
scalar barabasi_100nodes_network.node[27].content_store 	decision_no[27] 	11857
scalar barabasi_100nodes_network.node[27].content_store 	decision_ratio[27] 	0.55408048138398
scalar barabasi_100nodes_network.node[27].proactive_component 	hdistance[27].proactive_component 	4.0307505726991
scalar barabasi_100nodes_network.node[27].proactive_component 	downloads[27].proactive_component 	37105
scalar barabasi_100nodes_network.node[27].proactive_component 	avg_time[27].proactive_component 	0
scalar barabasi_100nodes_network.node[28].core_layer 	interests[28] 	22611
scalar barabasi_100nodes_network.node[28].core_layer 	data[28] 	13397
scalar barabasi_100nodes_network.node[28].core_layer 	slots_sent[face$o[1]->client[28]] 	13546005
scalar barabasi_100nodes_network.node[28].core_layer 	slots_sent[face$o[2]->node[0]] 	0
scalar barabasi_100nodes_network.node[28].content_store 	p_hit[28] 	0.40750077395958
scalar barabasi_100nodes_network.node[28].content_store 	hits[28] 	9214
scalar barabasi_100nodes_network.node[28].content_store 	misses[28] 	13397
scalar barabasi_100nodes_network.node[28].content_store 	decision_yes[28] 	7649
scalar barabasi_100nodes_network.node[28].content_store 	decision_no[28] 	5748
scalar barabasi_100nodes_network.node[28].content_store 	decision_ratio[28] 	0.57094871986266
scalar barabasi_100nodes_network.node[28].proactive_component 	hdistance[28].proactive_component 	4.9688026035237
scalar barabasi_100nodes_network.node[28].proactive_component 	downloads[28].proactive_component 	17822
scalar barabasi_100nodes_network.node[28].proactive_component 	avg_time[28].proactive_component 	0
scalar barabasi_100nodes_network.node[29].core_layer 	interests[29] 	24397
scalar barabasi_100nodes_network.node[29].core_layer 	repo_load[29] 	6674
scalar barabasi_100nodes_network.node[29].core_layer 	data[29] 	9705
scalar barabasi_100nodes_network.node[29].core_layer 	slots_sent[face$o[1]->client[29]] 	11349923
scalar barabasi_100nodes_network.node[29].core_layer 	slots_sent[face$o[2]->node[2]] 	0
scalar barabasi_100nodes_network.node[29].content_store 	p_hit[29] 	0.32864696479075
scalar barabasi_100nodes_network.node[29].content_store 	hits[29] 	8018
scalar barabasi_100nodes_network.node[29].content_store 	misses[29] 	16379
scalar barabasi_100nodes_network.node[29].content_store 	decision_yes[29] 	5378
scalar barabasi_100nodes_network.node[29].content_store 	decision_no[29] 	11001
scalar barabasi_100nodes_network.node[29].content_store 	decision_ratio[29] 	0.32834727394835
scalar barabasi_100nodes_network.node[29].proactive_component 	hdistance[29].proactive_component 	2.6574974146846
scalar barabasi_100nodes_network.node[29].proactive_component 	downloads[29].proactive_component 	24175
scalar barabasi_100nodes_network.node[29].proactive_component 	avg_time[29].proactive_component 	0
scalar barabasi_100nodes_network.node[30].core_layer 	interests[30] 	36731
scalar barabasi_100nodes_network.node[30].core_layer 	data[30] 	23024
scalar barabasi_100nodes_network.node[30].core_layer 	slots_sent[face$o[1]->client[30]] 	12973332
scalar barabasi_100nodes_network.node[30].core_layer 	slots_sent[face$o[2]->node[4]] 	0
scalar barabasi_100nodes_network.node[30].core_layer 	slots_sent[face$o[3]->node[88]] 	6783249
scalar barabasi_100nodes_network.node[30].content_store 	p_hit[30] 	0.2570308458795
scalar barabasi_100nodes_network.node[30].content_store 	hits[30] 	9441
scalar barabasi_100nodes_network.node[30].content_store 	misses[30] 	27290
scalar barabasi_100nodes_network.node[30].content_store 	decision_yes[30] 	12680
scalar barabasi_100nodes_network.node[30].content_store 	decision_no[30] 	10344
scalar barabasi_100nodes_network.node[30].content_store 	decision_ratio[30] 	0.55072967338429
scalar barabasi_100nodes_network.node[30].proactive_component 	hdistance[30].proactive_component 	3.8014221672592
scalar barabasi_100nodes_network.node[30].proactive_component 	downloads[30].proactive_component 	32345
scalar barabasi_100nodes_network.node[30].proactive_component 	avg_time[30].proactive_component 	0
scalar barabasi_100nodes_network.node[31].core_layer 	interests[31] 	62505
scalar barabasi_100nodes_network.node[31].core_layer 	data[31] 	40769
scalar barabasi_100nodes_network.node[31].core_layer 	slots_sent[face$o[1]->client[31]] 	13291893
scalar barabasi_100nodes_network.node[31].core_layer 	slots_sent[face$o[2]->node[7]] 	0
scalar barabasi_100nodes_network.node[31].core_layer 	slots_sent[face$o[3]->node[65]] 	19262956
scalar barabasi_100nodes_network.node[31].content_store 	p_hit[31] 	0.1538756899448
scalar barabasi_100nodes_network.node[31].content_store 	hits[31] 	9618
scalar barabasi_100nodes_network.node[31].content_store 	misses[31] 	52887
scalar barabasi_100nodes_network.node[31].content_store 	decision_yes[31] 	22690
scalar barabasi_100nodes_network.node[31].content_store 	decision_no[31] 	18079
scalar barabasi_100nodes_network.node[31].content_store 	decision_ratio[31] 	0.55655032009615
scalar barabasi_100nodes_network.node[31].proactive_component 	hdistance[31].proactive_component 	4.3719628500633
scalar barabasi_100nodes_network.node[31].proactive_component 	downloads[31].proactive_component 	56097
scalar barabasi_100nodes_network.node[31].proactive_component 	avg_time[31].proactive_component 	0
scalar barabasi_100nodes_network.node[32].core_layer 	interests[32] 	59540
scalar barabasi_100nodes_network.node[32].core_layer 	data[32] 	38268
scalar barabasi_100nodes_network.node[32].core_layer 	slots_sent[face$o[1]->client[32]] 	13129811
scalar barabasi_100nodes_network.node[32].core_layer 	slots_sent[face$o[2]->node[2]] 	0
scalar barabasi_100nodes_network.node[32].core_layer 	slots_sent[face$o[3]->node[43]] 	9262756
scalar barabasi_100nodes_network.node[32].core_layer 	slots_sent[face$o[4]->node[64]] 	9273461
scalar barabasi_100nodes_network.node[32].content_store 	p_hit[32] 	0.17447094390326
scalar barabasi_100nodes_network.node[32].content_store 	hits[32] 	10388
scalar barabasi_100nodes_network.node[32].content_store 	misses[32] 	49152
scalar barabasi_100nodes_network.node[32].content_store 	decision_yes[32] 	21340
scalar barabasi_100nodes_network.node[32].content_store 	decision_no[32] 	16928
scalar barabasi_100nodes_network.node[32].content_store 	decision_ratio[32] 	0.55764607504965
scalar barabasi_100nodes_network.node[32].proactive_component 	hdistance[32].proactive_component 	3.9556000074779
scalar barabasi_100nodes_network.node[32].proactive_component 	downloads[32].proactive_component 	53491
scalar barabasi_100nodes_network.node[32].proactive_component 	avg_time[32].proactive_component 	0
scalar barabasi_100nodes_network.node[33].core_layer 	interests[33] 	22534
scalar barabasi_100nodes_network.node[33].core_layer 	data[33] 	13251
scalar barabasi_100nodes_network.node[33].core_layer 	slots_sent[face$o[1]->client[33]] 	13364552
scalar barabasi_100nodes_network.node[33].core_layer 	slots_sent[face$o[2]->node[2]] 	0
scalar barabasi_100nodes_network.node[33].content_store 	p_hit[33] 	0.41195526759563
scalar barabasi_100nodes_network.node[33].content_store 	hits[33] 	9283
scalar barabasi_100nodes_network.node[33].content_store 	misses[33] 	13251
scalar barabasi_100nodes_network.node[33].content_store 	decision_yes[33] 	7462
scalar barabasi_100nodes_network.node[33].content_store 	decision_no[33] 	5789
scalar barabasi_100nodes_network.node[33].content_store 	decision_ratio[33] 	0.56312731114633
scalar barabasi_100nodes_network.node[33].proactive_component 	hdistance[33].proactive_component 	3.951737975164
scalar barabasi_100nodes_network.node[33].proactive_component 	downloads[33].proactive_component 	18441
scalar barabasi_100nodes_network.node[33].proactive_component 	avg_time[33].proactive_component 	0
scalar barabasi_100nodes_network.node[34].core_layer 	interests[34] 	22687
scalar barabasi_100nodes_network.node[34].core_layer 	data[34] 	13448
scalar barabasi_100nodes_network.node[34].core_layer 	slots_sent[face$o[1]->client[34]] 	13420233
scalar barabasi_100nodes_network.node[34].core_layer 	slots_sent[face$o[2]->node[2]] 	0
scalar barabasi_100nodes_network.node[34].content_store 	p_hit[34] 	0.40723762507163
scalar barabasi_100nodes_network.node[34].content_store 	hits[34] 	9239
scalar barabasi_100nodes_network.node[34].content_store 	misses[34] 	13448
scalar barabasi_100nodes_network.node[34].content_store 	decision_yes[34] 	7604
scalar barabasi_100nodes_network.node[34].content_store 	decision_no[34] 	5844
scalar barabasi_100nodes_network.node[34].content_store 	decision_ratio[34] 	0.56543723973825
scalar barabasi_100nodes_network.node[34].proactive_component 	hdistance[34].proactive_component 	3.9530703406706
scalar barabasi_100nodes_network.node[34].proactive_component 	downloads[34].proactive_component 	18581
scalar barabasi_100nodes_network.node[34].proactive_component 	avg_time[34].proactive_component 	0
scalar barabasi_100nodes_network.node[35].core_layer 	interests[35] 	40106
scalar barabasi_100nodes_network.node[35].core_layer 	data[35] 	25204
scalar barabasi_100nodes_network.node[35].core_layer 	slots_sent[face$o[1]->client[35]] 	13677950
scalar barabasi_100nodes_network.node[35].core_layer 	slots_sent[face$o[2]->node[5]] 	0
scalar barabasi_100nodes_network.node[35].core_layer 	slots_sent[face$o[3]->node[50]] 	9219718
scalar barabasi_100nodes_network.node[35].content_store 	p_hit[35] 	0.24168453597965
scalar barabasi_100nodes_network.node[35].content_store 	hits[35] 	9693
scalar barabasi_100nodes_network.node[35].content_store 	misses[35] 	30413
scalar barabasi_100nodes_network.node[35].content_store 	decision_yes[35] 	14503
scalar barabasi_100nodes_network.node[35].content_store 	decision_no[35] 	10701
scalar barabasi_100nodes_network.node[35].content_store 	decision_ratio[35] 	0.57542453578797
scalar barabasi_100nodes_network.node[35].proactive_component 	hdistance[35].proactive_component 	5.9696515773391
scalar barabasi_100nodes_network.node[35].proactive_component 	downloads[35].proactive_component 	33379
scalar barabasi_100nodes_network.node[35].proactive_component 	avg_time[35].proactive_component 	0
scalar barabasi_100nodes_network.node[36].core_layer 	interests[36] 	41550
scalar barabasi_100nodes_network.node[36].core_layer 	data[36] 	26112
scalar barabasi_100nodes_network.node[36].core_layer 	slots_sent[face$o[1]->client[36]] 	13237678
scalar barabasi_100nodes_network.node[36].core_layer 	slots_sent[face$o[2]->node[2]] 	0
scalar barabasi_100nodes_network.node[36].core_layer 	slots_sent[face$o[3]->node[75]] 	9421664
scalar barabasi_100nodes_network.node[36].content_store 	p_hit[36] 	0.23634175691937
scalar barabasi_100nodes_network.node[36].content_store 	hits[36] 	9820
scalar barabasi_100nodes_network.node[36].content_store 	misses[36] 	31730
scalar barabasi_100nodes_network.node[36].content_store 	decision_yes[36] 	14550
scalar barabasi_100nodes_network.node[36].content_store 	decision_no[36] 	11562
scalar barabasi_100nodes_network.node[36].content_store 	decision_ratio[36] 	0.55721507352941
scalar barabasi_100nodes_network.node[36].proactive_component 	hdistance[36].proactive_component 	3.954168280135
scalar barabasi_100nodes_network.node[36].proactive_component 	downloads[36].proactive_component 	36154
scalar barabasi_100nodes_network.node[36].proactive_component 	avg_time[36].proactive_component 	0
[...]
scalar barabasi_100nodes_network.client[8] 	downloads[8].real 	16976
scalar barabasi_100nodes_network.client[8] 	avg_time[8].real 	0
scalar barabasi_100nodes_network.client[9] 	hdistance[9].real 	2.1486849168009
scalar barabasi_100nodes_network.client[9] 	downloads[9].real 	16767
scalar barabasi_100nodes_network.client[9] 	avg_time[9].real 	0
scalar barabasi_100nodes_network.client[10] 	hdistance[10].real 	1.9468432618638
scalar barabasi_100nodes_network.client[10] 	downloads[10].real 	16837
scalar barabasi_100nodes_network.client[10] 	avg_time[10].real 	0
scalar barabasi_100nodes_network.client[11] 	hdistance[11].real 	1.8570919881306
scalar barabasi_100nodes_network.client[11] 	downloads[11].real 	16850
scalar barabasi_100nodes_network.client[11] 	avg_time[11].real 	0
scalar barabasi_100nodes_network.client[12] 	hdistance[12].real 	1.8662613981763
scalar barabasi_100nodes_network.client[12] 	downloads[12].real 	16779
scalar barabasi_100nodes_network.client[12] 	avg_time[12].real 	0
scalar barabasi_100nodes_network.client[13] 	hdistance[13].real 	1.689918718913
scalar barabasi_100nodes_network.client[13] 	downloads[13].real 	16486
scalar barabasi_100nodes_network.client[13] 	avg_time[13].real 	0
scalar barabasi_100nodes_network.client[14] 	hdistance[14].real 	1.8517440133104
scalar barabasi_100nodes_network.client[14] 	downloads[14].real 	16829
scalar barabasi_100nodes_network.client[14] 	avg_time[14].real 	0
scalar barabasi_100nodes_network.client[15] 	hdistance[15].real 	1.961724178542
scalar barabasi_100nodes_network.client[15] 	downloads[15].real 	16982
scalar barabasi_100nodes_network.client[15] 	avg_time[15].real 	0
scalar barabasi_100nodes_network.client[16] 	hdistance[16].real 	1.6418894616952
scalar barabasi_100nodes_network.client[16] 	downloads[16].real 	16682
scalar barabasi_100nodes_network.client[16] 	avg_time[16].real 	0
scalar barabasi_100nodes_network.client[17] 	hdistance[17].real 	1.8228014587194
scalar barabasi_100nodes_network.client[17] 	downloads[17].real 	16727
scalar barabasi_100nodes_network.client[17] 	avg_time[17].real 	0
scalar barabasi_100nodes_network.client[18] 	hdistance[18].real 	1.6902083826664
scalar barabasi_100nodes_network.client[18] 	downloads[18].real 	16892
scalar barabasi_100nodes_network.client[18] 	avg_time[18].real 	0
scalar barabasi_100nodes_network.client[19] 	hdistance[19].real 	2.0105962643678
scalar barabasi_100nodes_network.client[19] 	downloads[19].real 	16704
scalar barabasi_100nodes_network.client[19] 	avg_time[19].real 	0
scalar barabasi_100nodes_network.client[20] 	hdistance[20].real 	1.8660460151803
scalar barabasi_100nodes_network.client[20] 	downloads[20].real 	16864
scalar barabasi_100nodes_network.client[20] 	avg_time[20].real 	0
scalar barabasi_100nodes_network.client[21] 	hdistance[21].real 	1.9771172446332
scalar barabasi_100nodes_network.client[21] 	downloads[21].real 	16956
scalar barabasi_100nodes_network.client[21] 	avg_time[21].real 	0
scalar barabasi_100nodes_network.client[22] 	hdistance[22].real 	1.8865235432076
scalar barabasi_100nodes_network.client[22] 	downloads[22].real 	16629
scalar barabasi_100nodes_network.client[22] 	avg_time[22].real 	0
scalar barabasi_100nodes_network.client[23] 	hdistance[23].real 	1.9687760695984
scalar barabasi_100nodes_network.client[23] 	downloads[23].real 	16782
scalar barabasi_100nodes_network.client[23] 	avg_time[23].real 	0
scalar barabasi_100nodes_network.client[24] 	hdistance[24].real 	2.196195717191
scalar barabasi_100nodes_network.client[24] 	downloads[24].real 	16718
scalar barabasi_100nodes_network.client[24] 	avg_time[24].real 	0
scalar barabasi_100nodes_network.client[25] 	hdistance[25].real 	1.4628208203406
scalar barabasi_100nodes_network.client[25] 	downloads[25].real 	16676
scalar barabasi_100nodes_network.client[25] 	avg_time[25].real 	0
scalar barabasi_100nodes_network.client[26] 	hdistance[26].real 	1.610082848581
scalar barabasi_100nodes_network.client[26] 	downloads[26].real 	17019
scalar barabasi_100nodes_network.client[26] 	avg_time[26].real 	0
scalar barabasi_100nodes_network.client[27] 	hdistance[27].real 	1.6588914413618
scalar barabasi_100nodes_network.client[27] 	downloads[27].real 	16977
scalar barabasi_100nodes_network.client[27] 	avg_time[27].real 	0
scalar barabasi_100nodes_network.client[28] 	hdistance[28].real 	1.8977050346913
scalar barabasi_100nodes_network.client[28] 	downloads[28].real 	16863
scalar barabasi_100nodes_network.client[28] 	avg_time[28].real 	0
scalar barabasi_100nodes_network.client[29] 	hdistance[29].real 	1.3201458196378
scalar barabasi_100nodes_network.client[29] 	downloads[29].real 	16733
scalar barabasi_100nodes_network.client[29] 	avg_time[29].real 	0
scalar barabasi_100nodes_network.client[30] 	hdistance[30].real 	1.646275638719
scalar barabasi_100nodes_network.client[30] 	downloads[30].real 	16674
scalar barabasi_100nodes_network.client[30] 	avg_time[30].real 	0
scalar barabasi_100nodes_network.client[31] 	hdistance[31].real 	1.8309976247031
scalar barabasi_100nodes_network.client[31] 	downloads[31].real 	16840
scalar barabasi_100nodes_network.client[31] 	avg_time[31].real 	0
scalar barabasi_100nodes_network.client[32] 	hdistance[32].real 	1.6067234904929
scalar barabasi_100nodes_network.client[32] 	downloads[32].real 	16777
scalar barabasi_100nodes_network.client[32] 	avg_time[32].real 	0
scalar barabasi_100nodes_network.client[33] 	hdistance[33].real 	1.5262466407883
scalar barabasi_100nodes_network.client[33] 	downloads[33].real 	16745
scalar barabasi_100nodes_network.client[33] 	avg_time[33].real 	0
scalar barabasi_100nodes_network.client[34] 	hdistance[34].real 	1.5396900789646
scalar barabasi_100nodes_network.client[34] 	downloads[34].real 	16843
scalar barabasi_100nodes_network.client[34] 	avg_time[34].real 	0
scalar barabasi_100nodes_network.client[35] 	hdistance[35].real 	2.2611993788078
scalar barabasi_100nodes_network.client[35] 	downloads[35].real 	16742
scalar barabasi_100nodes_network.client[35] 	avg_time[35].real 	0
scalar barabasi_100nodes_network.client[36] 	hdistance[36].real 	1.5664560734295
scalar barabasi_100nodes_network.client[36] 	downloads[36].real 	16778
scalar barabasi_100nodes_network.client[36] 	avg_time[36].real 	0
scalar barabasi_100nodes_network.client[37] 	hdistance[37].real 	1.8931754291525
scalar barabasi_100nodes_network.client[37] 	downloads[37].real 	16719
scalar barabasi_100nodes_network.client[37] 	avg_time[37].real 	0
scalar barabasi_100nodes_network.client[38] 	hdistance[38].real 	1.6257383211026
scalar barabasi_100nodes_network.client[38] 	downloads[38].real 	16761
scalar barabasi_100nodes_network.client[38] 	avg_time[38].real 	0
scalar barabasi_100nodes_network.client[39] 	hdistance[39].real 	1.9073277132583
scalar barabasi_100nodes_network.client[39] 	downloads[39].real 	16963
scalar barabasi_100nodes_network.client[39] 	avg_time[39].real 	0
scalar barabasi_100nodes_network.client[40] 	hdistance[40].real 	2.1903375326836
scalar barabasi_100nodes_network.client[40] 	downloads[40].real 	16828
scalar barabasi_100nodes_network.client[40] 	avg_time[40].real 	0
scalar barabasi_100nodes_network.client[41] 	hdistance[41].real 	1.6852539530426
scalar barabasi_100nodes_network.client[41] 	downloads[41].real 	16696
scalar barabasi_100nodes_network.client[41] 	avg_time[41].real 	0
scalar barabasi_100nodes_network.client[42] 	hdistance[42].real 	1.8599558446208
scalar barabasi_100nodes_network.client[42] 	downloads[42].real 	16759
scalar barabasi_100nodes_network.client[42] 	avg_time[42].real 	0
scalar barabasi_100nodes_network.client[43] 	hdistance[43].real 	1.8481231724056
scalar barabasi_100nodes_network.client[43] 	downloads[43].real 	16757
scalar barabasi_100nodes_network.client[43] 	avg_time[43].real 	0
scalar barabasi_100nodes_network.client[44] 	hdistance[44].real 	1.8864641698614
scalar barabasi_100nodes_network.client[44] 	downloads[44].real 	16955
scalar barabasi_100nodes_network.client[44] 	avg_time[44].real 	0
scalar barabasi_100nodes_network.client[45] 	hdistance[45].real 	1.5183590479608
scalar barabasi_100nodes_network.client[45] 	downloads[45].real 	16722
scalar barabasi_100nodes_network.client[45] 	avg_time[45].real 	0
scalar barabasi_100nodes_network.client[46] 	hdistance[46].real 	2.0246068899292
scalar barabasi_100nodes_network.client[46] 	downloads[46].real 	16662
scalar barabasi_100nodes_network.client[46] 	avg_time[46].real 	0
scalar barabasi_100nodes_network.client[47] 	hdistance[47].real 	1.8857984678845
scalar barabasi_100nodes_network.client[47] 	downloads[47].real 	16970
scalar barabasi_100nodes_network.client[47] 	avg_time[47].real 	0
scalar barabasi_100nodes_network.client[48] 	hdistance[48].real 	1.8571004159239
scalar barabasi_100nodes_network.client[48] 	downloads[48].real 	16830
scalar barabasi_100nodes_network.client[48] 	avg_time[48].real 	0
scalar barabasi_100nodes_network.client[49] 	hdistance[49].real 	1.7744473810668
scalar barabasi_100nodes_network.client[49] 	downloads[49].real 	16648
scalar barabasi_100nodes_network.client[49] 	avg_time[49].real 	0
scalar barabasi_100nodes_network.client[50] 	hdistance[50].real 	2.5285045607297
scalar barabasi_100nodes_network.client[50] 	downloads[50].real 	16664
scalar barabasi_100nodes_network.client[50] 	avg_time[50].real 	0
scalar barabasi_100nodes_network.client[51] 	hdistance[51].real 	1.9381157453838
scalar barabasi_100nodes_network.client[51] 	downloads[51].real 	16951
scalar barabasi_100nodes_network.client[51] 	avg_time[51].real 	0
scalar barabasi_100nodes_network.client[52] 	hdistance[52].real 	1.65768321513
scalar barabasi_100nodes_network.client[52] 	downloads[52].real 	16920
scalar barabasi_100nodes_network.client[52] 	avg_time[52].real 	0
scalar barabasi_100nodes_network.client[53] 	hdistance[53].real 	1.7757750117426
scalar barabasi_100nodes_network.client[53] 	downloads[53].real 	17032
scalar barabasi_100nodes_network.client[53] 	avg_time[53].real 	0
scalar barabasi_100nodes_network.client[54] 	hdistance[54].real 	1.5929523924455
scalar barabasi_100nodes_network.client[54] 	downloads[54].real 	16573
scalar barabasi_100nodes_network.client[54] 	avg_time[54].real 	0
scalar barabasi_100nodes_network.client[55] 	hdistance[55].real 	1.8658609548881
scalar barabasi_100nodes_network.client[55] 	downloads[55].real 	16714
scalar barabasi_100nodes_network.client[55] 	avg_time[55].real 	0
scalar barabasi_100nodes_network.client[56] 	hdistance[56].real 	2.1945238095238
scalar barabasi_100nodes_network.client[56] 	downloads[56].real 	16800
scalar barabasi_100nodes_network.client[56] 	avg_time[56].real 	0
scalar barabasi_100nodes_network.client[57] 	hdistance[57].real 	2.211048074052
scalar barabasi_100nodes_network.client[57] 	downloads[57].real 	16745
scalar barabasi_100nodes_network.client[57] 	avg_time[57].real 	0
scalar barabasi_100nodes_network.client[58] 	hdistance[58].real 	1.9311050888287
scalar barabasi_100nodes_network.client[58] 	downloads[58].real 	16605
scalar barabasi_100nodes_network.client[58] 	avg_time[58].real 	0
scalar barabasi_100nodes_network.client[59] 	hdistance[59].real 	1.5401655451676
scalar barabasi_100nodes_network.client[59] 	downloads[59].real 	16793
scalar barabasi_100nodes_network.client[59] 	avg_time[59].real 	0
scalar barabasi_100nodes_network.client[60] 	hdistance[60].real 	2.1897457323624
scalar barabasi_100nodes_network.client[60] 	downloads[60].real 	16754
scalar barabasi_100nodes_network.client[60] 	avg_time[60].real 	0
scalar barabasi_100nodes_network.client[61] 	hdistance[61].real 	1.887380952381
scalar barabasi_100nodes_network.client[61] 	downloads[61].real 	16800
scalar barabasi_100nodes_network.client[61] 	avg_time[61].real 	0
scalar barabasi_100nodes_network.client[62] 	hdistance[62].real 	1.585444166964
scalar barabasi_100nodes_network.client[62] 	downloads[62].real 	16818
scalar barabasi_100nodes_network.client[62] 	avg_time[62].real 	0
scalar barabasi_100nodes_network.client[63] 	hdistance[63].real 	2.2355749149711
scalar barabasi_100nodes_network.client[63] 	downloads[63].real 	16759
scalar barabasi_100nodes_network.client[63] 	avg_time[63].real 	0
scalar barabasi_100nodes_network.client[64] 	hdistance[64].real 	1.8399761336516
scalar barabasi_100nodes_network.client[64] 	downloads[64].real 	16760
scalar barabasi_100nodes_network.client[64] 	avg_time[64].real 	0
scalar barabasi_100nodes_network.client[65] 	hdistance[65].real 	1.7133548541368
scalar barabasi_100nodes_network.client[65] 	downloads[65].real 	16728
scalar barabasi_100nodes_network.client[65] 	avg_time[65].real 	0
scalar barabasi_100nodes_network.client[66] 	hdistance[66].real 	1.8670912696028
scalar barabasi_100nodes_network.client[66] 	downloads[66].real 	16643
scalar barabasi_100nodes_network.client[66] 	avg_time[66].real 	0
scalar barabasi_100nodes_network.client[67] 	hdistance[67].real 	1.6633373205742
scalar barabasi_100nodes_network.client[67] 	downloads[67].real 	16720
scalar barabasi_100nodes_network.client[67] 	avg_time[67].real 	0
scalar barabasi_100nodes_network.client[68] 	hdistance[68].real 	1.7061276287165
scalar barabasi_100nodes_network.client[68] 	downloads[68].real 	16548
scalar barabasi_100nodes_network.client[68] 	avg_time[68].real 	0
scalar barabasi_100nodes_network.client[69] 	hdistance[69].real 	1.8629486799169
scalar barabasi_100nodes_network.client[69] 	downloads[69].real 	16855
scalar barabasi_100nodes_network.client[69] 	avg_time[69].real 	0
scalar barabasi_100nodes_network.client[70] 	hdistance[70].real 	2.1909181695353
scalar barabasi_100nodes_network.client[70] 	downloads[70].real 	17023
scalar barabasi_100nodes_network.client[70] 	avg_time[70].real 	0
scalar barabasi_100nodes_network.client[71] 	hdistance[71].real 	2.1982613908873
scalar barabasi_100nodes_network.client[71] 	downloads[71].real 	16680
scalar barabasi_100nodes_network.client[71] 	avg_time[71].real 	0
scalar barabasi_100nodes_network.client[72] 	hdistance[72].real 	1.7832763481495
scalar barabasi_100nodes_network.client[72] 	downloads[72].real 	16671
scalar barabasi_100nodes_network.client[72] 	avg_time[72].real 	0
scalar barabasi_100nodes_network.client[73] 	hdistance[73].real 	1.603737763275
scalar barabasi_100nodes_network.client[73] 	downloads[73].real 	16855
scalar barabasi_100nodes_network.client[73] 	avg_time[73].real 	0
scalar barabasi_100nodes_network.client[74] 	hdistance[74].real 	1.6596367546899
scalar barabasi_100nodes_network.client[74] 	downloads[74].real 	16738
scalar barabasi_100nodes_network.client[74] 	avg_time[74].real 	0
scalar barabasi_100nodes_network.client[75] 	hdistance[75].real 	1.8801377999525
scalar barabasi_100nodes_network.client[75] 	downloads[75].real 	16836
scalar barabasi_100nodes_network.client[75] 	avg_time[75].real 	0
scalar barabasi_100nodes_network.client[76] 	hdistance[76].real 	1.7628660961793
scalar barabasi_100nodes_network.client[76] 	downloads[76].real 	16594
scalar barabasi_100nodes_network.client[76] 	avg_time[76].real 	0
scalar barabasi_100nodes_network.client[77] 	hdistance[77].real 	1.657846553659
scalar barabasi_100nodes_network.client[77] 	downloads[77].real 	16931
scalar barabasi_100nodes_network.client[77] 	avg_time[77].real 	0
scalar barabasi_100nodes_network.client[78] 	hdistance[78].real 	1.5427753251402
scalar barabasi_100nodes_network.client[78] 	downloads[78].real 	16762
scalar barabasi_100nodes_network.client[78] 	avg_time[78].real 	0
scalar barabasi_100nodes_network.client[79] 	hdistance[79].real 	1.5383284614926
scalar barabasi_100nodes_network.client[79] 	downloads[79].real 	16763
scalar barabasi_100nodes_network.client[79] 	avg_time[79].real 	0
scalar barabasi_100nodes_network.client[80] 	hdistance[80].real 	2.2310117171237
scalar barabasi_100nodes_network.client[80] 	downloads[80].real 	16813
scalar barabasi_100nodes_network.client[80] 	avg_time[80].real 	0
scalar barabasi_100nodes_network.client[81] 	hdistance[81].real 	1.6955720653789
scalar barabasi_100nodes_network.client[81] 	downloads[81].real 	16825
scalar barabasi_100nodes_network.client[81] 	avg_time[81].real 	0
scalar barabasi_100nodes_network.client[82] 	hdistance[82].real 	2.2732308791994
scalar barabasi_100nodes_network.client[82] 	downloads[82].real 	16788
scalar barabasi_100nodes_network.client[82] 	avg_time[82].real 	0
scalar barabasi_100nodes_network.client[83] 	hdistance[83].real 	1.9323886153477
scalar barabasi_100nodes_network.client[83] 	downloads[83].real 	16654
scalar barabasi_100nodes_network.client[83] 	avg_time[83].real 	0
scalar barabasi_100nodes_network.client[84] 	hdistance[84].real 	1.6833461333963
scalar barabasi_100nodes_network.client[84] 	downloads[84].real 	16927
scalar barabasi_100nodes_network.client[84] 	avg_time[84].real 	0
scalar barabasi_100nodes_network.client[85] 	hdistance[85].real 	1.6217635127073
scalar barabasi_100nodes_network.client[85] 	downloads[85].real 	16762
scalar barabasi_100nodes_network.client[85] 	avg_time[85].real 	0
scalar barabasi_100nodes_network.client[86] 	hdistance[86].real 	1.9657620041754
scalar barabasi_100nodes_network.client[86] 	downloads[86].real 	16765
scalar barabasi_100nodes_network.client[86] 	avg_time[86].real 	0
scalar barabasi_100nodes_network.client[87] 	hdistance[87].real 	1.7063271696107
scalar barabasi_100nodes_network.client[87] 	downloads[87].real 	16927
scalar barabasi_100nodes_network.client[87] 	avg_time[87].real 	0
scalar barabasi_100nodes_network.client[88] 	hdistance[88].real 	1.5646144650329
scalar barabasi_100nodes_network.client[88] 	downloads[88].real 	16730
scalar barabasi_100nodes_network.client[88] 	avg_time[88].real 	0
scalar barabasi_100nodes_network.client[89] 	hdistance[89].real 	2.231421744325
scalar barabasi_100nodes_network.client[89] 	downloads[89].real 	16740
scalar barabasi_100nodes_network.client[89] 	avg_time[89].real 	0
scalar barabasi_100nodes_network.client[90] 	hdistance[90].real 	1.7247749602871
scalar barabasi_100nodes_network.client[90] 	downloads[90].real 	16997
scalar barabasi_100nodes_network.client[90] 	avg_time[90].real 	0
scalar barabasi_100nodes_network.client[91] 	hdistance[91].real 	1.8524078299508
scalar barabasi_100nodes_network.client[91] 	downloads[91].real 	16654
scalar barabasi_100nodes_network.client[91] 	avg_time[91].real 	0
scalar barabasi_100nodes_network.client[92] 	hdistance[92].real 	1.8277225350425
scalar barabasi_100nodes_network.client[92] 	downloads[92].real 	16694
scalar barabasi_100nodes_network.client[92] 	avg_time[92].real 	0
scalar barabasi_100nodes_network.client[93] 	hdistance[93].real 	1.8504510963733
scalar barabasi_100nodes_network.client[93] 	downloads[93].real 	16737
scalar barabasi_100nodes_network.client[93] 	avg_time[93].real 	0
scalar barabasi_100nodes_network.client[94] 	hdistance[94].real 	2.1876491646778
scalar barabasi_100nodes_network.client[94] 	downloads[94].real 	16760
scalar barabasi_100nodes_network.client[94] 	avg_time[94].real 	0
scalar barabasi_100nodes_network.client[95] 	hdistance[95].real 	1.9878842676311
scalar barabasi_100nodes_network.client[95] 	downloads[95].real 	16590
scalar barabasi_100nodes_network.client[95] 	avg_time[95].real 	0
scalar barabasi_100nodes_network.client[96] 	hdistance[96].real 	1.8407707311307
scalar barabasi_100nodes_network.client[96] 	downloads[96].real 	16919
scalar barabasi_100nodes_network.client[96] 	avg_time[96].real 	0
scalar barabasi_100nodes_network.client[97] 	hdistance[97].real 	1.7829993928355
scalar barabasi_100nodes_network.client[97] 	downloads[97].real 	16470
scalar barabasi_100nodes_network.client[97] 	avg_time[97].real 	0
scalar barabasi_100nodes_network.client[98] 	hdistance[98].real 	1.9333055439767
scalar barabasi_100nodes_network.client[98] 	downloads[98].real 	16793
scalar barabasi_100nodes_network.client[98] 	avg_time[98].real 	0
scalar barabasi_100nodes_network.client[99] 	hdistance[99].real 	1.9311345333965
scalar barabasi_100nodes_network.client[99] 	downloads[99].real 	16888
scalar barabasi_100nodes_network.client[99] 	avg_time[99].real 	0
