version 2
run General-12-20140930-19:28:01-29383
attr D costaware0.01
attr F spr
attr R lru
attr a 1
attr configname General
attr csize 1e3
attr ctlg 1e5
attr datetime 20140930-19:28:01
attr experiment General
attr inifile omnetpp.ini
attr iterationvars "$net=tiger_cost, $rep=12, $priceratiovalue=10, $weights=0.333_0.333_0.334, $lambda=100, $a=1, $ctlg=1e5, $F=spr, $ttl=10, $D=costaware0.01, $xi=1, $R=lru, $csize=1e3, $pricebits=0, $window=60, $variance=0.05, $mytime=1800"
attr iterationvars2 "$net=tiger_cost, $rep=12, $priceratiovalue=10, $weights=0.333_0.333_0.334, $lambda=100, $a=1, $ctlg=1e5, $F=spr, $ttl=10, $D=costaware0.01, $xi=1, $R=lru, $csize=1e3, $pricebits=0, $window=60, $variance=0.05, $mytime=1800, $repetition=0"
attr lambda 100
attr measurement "$net=tiger_cost, $rep=12, $priceratiovalue=10, $weights=0.333_0.333_0.334, $lambda=100, $a=1, $ctlg=1e5, $F=spr, $ttl=10, $D=costaware0.01, $xi=1, $R=lru, $csize=1e3, $pricebits=0, $window=60, $variance=0.05, $mytime=1800"
attr mytime 1800
attr net tiger_cost
attr network networks.${net=tiger_cost,dtelecom_cost}_network
attr pricebits 0
attr priceratiovalue 10
attr processid 29383
attr rep 12
attr repetition 0
attr replication #0
attr resultdir results
attr runnumber 12
attr seedset 12
attr ttl 10
attr variance 0.05
attr weights 0.333_0.333_0.334
attr window 60
attr xi 1

scalar . 	a 	1
scalar . 	csize 	1e3
scalar . 	ctlg 	1e5
scalar . 	lambda 	100
scalar . 	mytime 	1800
scalar . 	pricebits 	0
scalar . 	priceratiovalue 	10
scalar . 	rep 	12
scalar . 	ttl 	10
scalar . 	variance 	0.05
scalar . 	window 	60
scalar . 	xi 	1
scalar tiger_cost_network.content_distribution 	repo-0 	15
scalar tiger_cost_network.content_distribution 	repo-1 	11
scalar tiger_cost_network.content_distribution 	repo-2 	12
scalar tiger_cost_network.content_distribution 	client-0 	21
scalar tiger_cost_network.content_distribution 	client-1 	3
scalar tiger_cost_network.content_distribution 	client-2 	10
scalar tiger_cost_network.content_distribution 	repo-0_card 	33377
scalar tiger_cost_network.content_distribution 	repo-0_price 	1
scalar tiger_cost_network.content_distribution 	repo-1_card 	33438
scalar tiger_cost_network.content_distribution 	repo-1_price 	10
scalar tiger_cost_network.content_distribution 	repo-2_card 	33185
scalar tiger_cost_network.content_distribution 	repo-2_price 	0
scalar tiger_cost_network.statistics 	repo_popularity[0] 	0.39206413854294
scalar tiger_cost_network.statistics 	repo_popularity[1] 	0.32380036391025
scalar tiger_cost_network.statistics 	repo_popularity[2] 	0.28413549754682
scalar tiger_cost_network.statistics 	stabilization_time 	36060
scalar tiger_cost_network.statistics 	p_hit 	0.11163053584398
scalar tiger_cost_network.statistics 	interests 	80421.136363636
scalar tiger_cost_network.statistics 	data 	55886.227272727
scalar tiger_cost_network.statistics 	hdistance 	2.9165480714041
scalar tiger_cost_network.statistics 	avg_time 	0.000774829853
scalar tiger_cost_network.statistics 	downloads 	539286
scalar tiger_cost_network.statistics 	total_cost 	1069191
scalar tiger_cost_network.statistics 	total_replicas 	100000
scalar tiger_cost_network.statistics 	inner_hit 	0.36680907718724
scalar tiger_cost_network.node[0].core_layer 	interests[0] 	94214
scalar tiger_cost_network.node[0].core_layer 	data[0] 	84543
scalar tiger_cost_network.node[0].core_layer 	repo_int[0] 	341471
scalar tiger_cost_network.node[0].content_store 	p_hit[0] 	0.10264928779162
scalar tiger_cost_network.node[0].content_store 	hits[0] 	9671
scalar tiger_cost_network.node[0].content_store 	misses[0] 	84543
scalar tiger_cost_network.node[0].content_store 	decision_yes[0] 	869
scalar tiger_cost_network.node[0].content_store 	decision_no[0] 	83674
scalar tiger_cost_network.node[0].content_store 	decision_ratio[0] 	0.010278793040228
scalar tiger_cost_network.node[0].content_store 	correction_factor[0] 	0.0027225701061802
scalar tiger_cost_network.node[0].content_store 	kappa[0] 	1
scalar tiger_cost_network.node[1].core_layer 	interests[1] 	135332
scalar tiger_cost_network.node[1].core_layer 	data[1] 	127808
scalar tiger_cost_network.node[1].content_store 	p_hit[1] 	0.053357668548459
scalar tiger_cost_network.node[1].content_store 	hits[1] 	7221
scalar tiger_cost_network.node[1].content_store 	misses[1] 	128111
scalar tiger_cost_network.node[1].content_store 	decision_yes[1] 	157
scalar tiger_cost_network.node[1].content_store 	decision_no[1] 	127651
scalar tiger_cost_network.node[1].content_store 	decision_ratio[1] 	0.0012284051076615
scalar tiger_cost_network.node[1].content_store 	correction_factor[1] 	0.0027225701061802
scalar tiger_cost_network.node[1].content_store 	kappa[1] 	1
scalar tiger_cost_network.node[2].core_layer 	interests[2] 	229214
scalar tiger_cost_network.node[2].core_layer 	data[2] 	215882
scalar tiger_cost_network.node[2].content_store 	p_hit[2] 	0.058163986492972
scalar tiger_cost_network.node[2].content_store 	hits[2] 	13332
scalar tiger_cost_network.node[2].content_store 	misses[2] 	215882
scalar tiger_cost_network.node[2].content_store 	decision_yes[2] 	1000
scalar tiger_cost_network.node[2].content_store 	decision_no[2] 	214882
scalar tiger_cost_network.node[2].content_store 	decision_ratio[2] 	0.0046321601615697
scalar tiger_cost_network.node[2].content_store 	correction_factor[2] 	0.0027225701061802
scalar tiger_cost_network.node[2].content_store 	kappa[2] 	1
scalar tiger_cost_network.node[3].core_layer 	interests[3] 	300250
scalar tiger_cost_network.node[3].core_layer 	data[3] 	214934
scalar tiger_cost_network.node[3].content_store 	p_hit[3] 	0.2840532889259
scalar tiger_cost_network.node[3].content_store 	hits[3] 	85287
scalar tiger_cost_network.node[3].content_store 	misses[3] 	214963
scalar tiger_cost_network.node[3].content_store 	decision_yes[3] 	1008
scalar tiger_cost_network.node[3].content_store 	decision_no[3] 	213926
scalar tiger_cost_network.node[3].content_store 	decision_ratio[3] 	0.004689811756167
scalar tiger_cost_network.node[3].content_store 	correction_factor[3] 	0.0027225701061802
scalar tiger_cost_network.node[3].content_store 	kappa[3] 	1
scalar tiger_cost_network.node[4].core_layer 	interests[4] 	0
scalar tiger_cost_network.node[4].core_layer 	data[4] 	0
scalar tiger_cost_network.node[4].content_store 	p_hit[4] 	-nan
scalar tiger_cost_network.node[4].content_store 	hits[4] 	0
scalar tiger_cost_network.node[4].content_store 	misses[4] 	0
scalar tiger_cost_network.node[4].content_store 	decision_yes[4] 	0
scalar tiger_cost_network.node[4].content_store 	decision_no[4] 	0
scalar tiger_cost_network.node[4].content_store 	decision_ratio[4] 	0
scalar tiger_cost_network.node[4].content_store 	correction_factor[4] 	0.0027225701061802
scalar tiger_cost_network.node[4].content_store 	kappa[4] 	1
scalar tiger_cost_network.node[5].core_layer 	interests[5] 	0
scalar tiger_cost_network.node[5].core_layer 	data[5] 	0
scalar tiger_cost_network.node[5].content_store 	p_hit[5] 	-nan
scalar tiger_cost_network.node[5].content_store 	hits[5] 	0
scalar tiger_cost_network.node[5].content_store 	misses[5] 	0
scalar tiger_cost_network.node[5].content_store 	decision_yes[5] 	0
scalar tiger_cost_network.node[5].content_store 	decision_no[5] 	0
scalar tiger_cost_network.node[5].content_store 	decision_ratio[5] 	0
scalar tiger_cost_network.node[5].content_store 	correction_factor[5] 	0.0027225701061802
scalar tiger_cost_network.node[5].content_store 	kappa[5] 	1
scalar tiger_cost_network.node[6].core_layer 	interests[6] 	0
scalar tiger_cost_network.node[6].core_layer 	data[6] 	0
scalar tiger_cost_network.node[6].content_store 	p_hit[6] 	-nan
scalar tiger_cost_network.node[6].content_store 	hits[6] 	0
scalar tiger_cost_network.node[6].content_store 	misses[6] 	0
scalar tiger_cost_network.node[6].content_store 	decision_yes[6] 	0
scalar tiger_cost_network.node[6].content_store 	decision_no[6] 	0
scalar tiger_cost_network.node[6].content_store 	decision_ratio[6] 	0
scalar tiger_cost_network.node[6].content_store 	correction_factor[6] 	0.0027225701061802
scalar tiger_cost_network.node[6].content_store 	kappa[6] 	1
scalar tiger_cost_network.node[7].core_layer 	interests[7] 	0
scalar tiger_cost_network.node[7].core_layer 	data[7] 	0
scalar tiger_cost_network.node[7].content_store 	p_hit[7] 	-nan
scalar tiger_cost_network.node[7].content_store 	hits[7] 	0
scalar tiger_cost_network.node[7].content_store 	misses[7] 	0
scalar tiger_cost_network.node[7].content_store 	decision_yes[7] 	0
scalar tiger_cost_network.node[7].content_store 	decision_no[7] 	0
scalar tiger_cost_network.node[7].content_store 	decision_ratio[7] 	0
scalar tiger_cost_network.node[7].content_store 	correction_factor[7] 	0.0027225701061802
scalar tiger_cost_network.node[7].content_store 	kappa[7] 	1
scalar tiger_cost_network.node[8].core_layer 	interests[8] 	67495
scalar tiger_cost_network.node[8].core_layer 	data[8] 	64708
scalar tiger_cost_network.node[8].content_store 	p_hit[8] 	0.04129194755167
scalar tiger_cost_network.node[8].content_store 	hits[8] 	2787
scalar tiger_cost_network.node[8].content_store 	misses[8] 	64708
scalar tiger_cost_network.node[8].content_store 	decision_yes[8] 	67
scalar tiger_cost_network.node[8].content_store 	decision_no[8] 	64641
scalar tiger_cost_network.node[8].content_store 	decision_ratio[8] 	0.0010354206589603
scalar tiger_cost_network.node[8].content_store 	correction_factor[8] 	0.0027225701061802
scalar tiger_cost_network.node[8].content_store 	kappa[8] 	1
scalar tiger_cost_network.node[9].core_layer 	interests[9] 	0
scalar tiger_cost_network.node[9].core_layer 	data[9] 	0
scalar tiger_cost_network.node[9].content_store 	p_hit[9] 	-nan
scalar tiger_cost_network.node[9].content_store 	hits[9] 	0
scalar tiger_cost_network.node[9].content_store 	misses[9] 	0
scalar tiger_cost_network.node[9].content_store 	decision_yes[9] 	0
scalar tiger_cost_network.node[9].content_store 	decision_no[9] 	0
scalar tiger_cost_network.node[9].content_store 	decision_ratio[9] 	0
scalar tiger_cost_network.node[9].content_store 	correction_factor[9] 	0.0027225701061802
scalar tiger_cost_network.node[9].content_store 	kappa[9] 	1
scalar tiger_cost_network.node[10].core_layer 	interests[10] 	180592
scalar tiger_cost_network.node[10].core_layer 	data[10] 	169928
scalar tiger_cost_network.node[10].content_store 	p_hit[10] 	0.057942766013998
scalar tiger_cost_network.node[10].content_store 	hits[10] 	10464
scalar tiger_cost_network.node[10].content_store 	misses[10] 	170128
scalar tiger_cost_network.node[10].content_store 	decision_yes[10] 	1040
scalar tiger_cost_network.node[10].content_store 	decision_no[10] 	168888
scalar tiger_cost_network.node[10].content_store 	decision_ratio[10] 	0.0061202391601149
scalar tiger_cost_network.node[10].content_store 	correction_factor[10] 	0.0027225701061802
scalar tiger_cost_network.node[10].content_store 	kappa[10] 	1
scalar tiger_cost_network.node[11].core_layer 	interests[11] 	171496
scalar tiger_cost_network.node[11].core_layer 	repo_load[11] 	97888
scalar tiger_cost_network.node[11].core_layer 	data[11] 	51393
scalar tiger_cost_network.node[11].content_store 	p_hit[11] 	0.12953654895741
scalar tiger_cost_network.node[11].content_store 	hits[11] 	22215
scalar tiger_cost_network.node[11].content_store 	misses[11] 	149281
scalar tiger_cost_network.node[11].content_store 	decision_yes[11] 	2681
scalar tiger_cost_network.node[11].content_store 	decision_no[11] 	146600
scalar tiger_cost_network.node[11].content_store 	decision_ratio[11] 	0.017959418814183
scalar tiger_cost_network.node[11].content_store 	correction_factor[11] 	0.0027225701061802
scalar tiger_cost_network.node[11].content_store 	kappa[11] 	1
scalar tiger_cost_network.node[12].core_layer 	interests[12] 	197806
scalar tiger_cost_network.node[12].core_layer 	repo_load[12] 	153272
scalar tiger_cost_network.node[12].core_layer 	data[12] 	38228
scalar tiger_cost_network.node[12].content_store 	p_hit[12] 	0.031879720534261
scalar tiger_cost_network.node[12].content_store 	hits[12] 	6306
scalar tiger_cost_network.node[12].content_store 	misses[12] 	191500
scalar tiger_cost_network.node[12].content_store 	decision_yes[12] 	850
scalar tiger_cost_network.node[12].content_store 	decision_no[12] 	190650
scalar tiger_cost_network.node[12].content_store 	decision_ratio[12] 	0.0044386422976501
scalar tiger_cost_network.node[12].content_store 	correction_factor[12] 	0.0027225701061802
scalar tiger_cost_network.node[12].content_store 	kappa[12] 	1
scalar tiger_cost_network.node[13].core_layer 	interests[13] 	0
scalar tiger_cost_network.node[13].core_layer 	data[13] 	0
scalar tiger_cost_network.node[13].content_store 	p_hit[13] 	-nan
scalar tiger_cost_network.node[13].content_store 	hits[13] 	0
scalar tiger_cost_network.node[13].content_store 	misses[13] 	0
scalar tiger_cost_network.node[13].content_store 	decision_yes[13] 	0
scalar tiger_cost_network.node[13].content_store 	decision_no[13] 	0
scalar tiger_cost_network.node[13].content_store 	decision_ratio[13] 	0
scalar tiger_cost_network.node[13].content_store 	correction_factor[13] 	0.0027225701061802
scalar tiger_cost_network.node[13].content_store 	kappa[13] 	1
scalar tiger_cost_network.node[14].core_layer 	interests[14] 	0
scalar tiger_cost_network.node[14].core_layer 	data[14] 	0
scalar tiger_cost_network.node[14].content_store 	p_hit[14] 	-nan
scalar tiger_cost_network.node[14].content_store 	hits[14] 	0
scalar tiger_cost_network.node[14].content_store 	misses[14] 	0
scalar tiger_cost_network.node[14].content_store 	decision_yes[14] 	0
scalar tiger_cost_network.node[14].content_store 	decision_no[14] 	0
scalar tiger_cost_network.node[14].content_store 	decision_ratio[14] 	0
scalar tiger_cost_network.node[14].content_store 	correction_factor[14] 	0.0027225701061802
scalar tiger_cost_network.node[14].content_store 	kappa[14] 	1
scalar tiger_cost_network.node[15].core_layer 	interests[15] 	113527
scalar tiger_cost_network.node[15].core_layer 	repo_load[15] 	90311
scalar tiger_cost_network.node[15].core_layer 	data[15] 	0
scalar tiger_cost_network.node[15].content_store 	p_hit[15] 	0.20449760849842
scalar tiger_cost_network.node[15].content_store 	hits[15] 	23216
scalar tiger_cost_network.node[15].content_store 	misses[15] 	90311
scalar tiger_cost_network.node[15].content_store 	decision_yes[15] 	220
scalar tiger_cost_network.node[15].content_store 	decision_no[15] 	90091
scalar tiger_cost_network.node[15].content_store 	decision_ratio[15] 	0.0024360266191272
scalar tiger_cost_network.node[15].content_store 	correction_factor[15] 	0.0027225701061802
scalar tiger_cost_network.node[15].content_store 	kappa[15] 	1
scalar tiger_cost_network.node[16].core_layer 	interests[16] 	0
scalar tiger_cost_network.node[16].core_layer 	data[16] 	0
scalar tiger_cost_network.node[16].content_store 	p_hit[16] 	-nan
scalar tiger_cost_network.node[16].content_store 	hits[16] 	0
scalar tiger_cost_network.node[16].content_store 	misses[16] 	0
scalar tiger_cost_network.node[16].content_store 	decision_yes[16] 	0
scalar tiger_cost_network.node[16].content_store 	decision_no[16] 	0
scalar tiger_cost_network.node[16].content_store 	decision_ratio[16] 	0
scalar tiger_cost_network.node[16].content_store 	correction_factor[16] 	0.0027225701061802
scalar tiger_cost_network.node[16].content_store 	kappa[16] 	1
scalar tiger_cost_network.node[17].core_layer 	interests[17] 	0
scalar tiger_cost_network.node[17].core_layer 	data[17] 	0
scalar tiger_cost_network.node[17].content_store 	p_hit[17] 	-nan
scalar tiger_cost_network.node[17].content_store 	hits[17] 	0
scalar tiger_cost_network.node[17].content_store 	misses[17] 	0
scalar tiger_cost_network.node[17].content_store 	decision_yes[17] 	0
scalar tiger_cost_network.node[17].content_store 	decision_no[17] 	0
scalar tiger_cost_network.node[17].content_store 	decision_ratio[17] 	0
scalar tiger_cost_network.node[17].content_store 	correction_factor[17] 	0.0027225701061802
scalar tiger_cost_network.node[17].content_store 	kappa[17] 	1
scalar tiger_cost_network.node[18].core_layer 	interests[18] 	0
scalar tiger_cost_network.node[18].core_layer 	data[18] 	0
scalar tiger_cost_network.node[18].content_store 	p_hit[18] 	-nan
scalar tiger_cost_network.node[18].content_store 	hits[18] 	0
scalar tiger_cost_network.node[18].content_store 	misses[18] 	0
scalar tiger_cost_network.node[18].content_store 	decision_yes[18] 	0
scalar tiger_cost_network.node[18].content_store 	decision_no[18] 	0
scalar tiger_cost_network.node[18].content_store 	decision_ratio[18] 	0
scalar tiger_cost_network.node[18].content_store 	correction_factor[18] 	0.0027225701061802
scalar tiger_cost_network.node[18].content_store 	kappa[18] 	1
scalar tiger_cost_network.node[19].core_layer 	interests[19] 	100364
scalar tiger_cost_network.node[19].core_layer 	data[19] 	94214
scalar tiger_cost_network.node[19].content_store 	p_hit[19] 	0.061276951895102
scalar tiger_cost_network.node[19].content_store 	hits[19] 	6150
scalar tiger_cost_network.node[19].content_store 	misses[19] 	94214
scalar tiger_cost_network.node[19].content_store 	decision_yes[19] 	851
scalar tiger_cost_network.node[19].content_store 	decision_no[19] 	93363
scalar tiger_cost_network.node[19].content_store 	decision_ratio[19] 	0.0090326278472414
scalar tiger_cost_network.node[19].content_store 	correction_factor[19] 	0.0027225701061802
scalar tiger_cost_network.node[19].content_store 	kappa[19] 	1
scalar tiger_cost_network.node[20].core_layer 	interests[20] 	0
scalar tiger_cost_network.node[20].core_layer 	data[20] 	0
scalar tiger_cost_network.node[20].content_store 	p_hit[20] 	-nan
scalar tiger_cost_network.node[20].content_store 	hits[20] 	0
scalar tiger_cost_network.node[20].content_store 	misses[20] 	0
scalar tiger_cost_network.node[20].content_store 	decision_yes[20] 	0
scalar tiger_cost_network.node[20].content_store 	decision_no[20] 	0
scalar tiger_cost_network.node[20].content_store 	decision_ratio[20] 	0
scalar tiger_cost_network.node[20].content_store 	correction_factor[20] 	0.0027225701061802
scalar tiger_cost_network.node[20].content_store 	kappa[20] 	1
scalar tiger_cost_network.node[21].core_layer 	interests[21] 	178975
scalar tiger_cost_network.node[21].core_layer 	data[21] 	167859
scalar tiger_cost_network.node[21].content_store 	p_hit[21] 	0.060650928900684
scalar tiger_cost_network.node[21].content_store 	hits[21] 	10855
scalar tiger_cost_network.node[21].content_store 	misses[21] 	168120
scalar tiger_cost_network.node[21].content_store 	decision_yes[21] 	939
scalar tiger_cost_network.node[21].content_store 	decision_no[21] 	166920
scalar tiger_cost_network.node[21].content_store 	decision_ratio[21] 	0.0055939806623416
scalar tiger_cost_network.node[21].content_store 	correction_factor[21] 	0.0027225701061802
scalar tiger_cost_network.node[21].content_store 	kappa[21] 	1
scalar tiger_cost_network.client[3] 	hdistance[3] 	2.1926018426018
scalar tiger_cost_network.client[3] 	downloads[3] 	180180
scalar tiger_cost_network.client[3] 	avg_time[3] 	0.000668200258
scalar tiger_cost_network.client[10] 	hdistance[10] 	2.7954288438512
scalar tiger_cost_network.client[10] 	downloads[10] 	180392
scalar tiger_cost_network.client[10] 	avg_time[10] 	0.000618900148
scalar tiger_cost_network.client[21] 	hdistance[21] 	3.7616135277594
scalar tiger_cost_network.client[21] 	downloads[21] 	178714
scalar tiger_cost_network.client[21] 	avg_time[21] 	0.001037389155
