version 2
run General-197-20150321-10:58:17-12015
attr D costaware0.01
attr F nrr
attr R lru
attr a 1
attr configname General
attr csize 1e3
attr ctlg 1e5
attr datetime 20150321-10:58:17
attr experiment General
attr inifile omnetpp.ini
attr iterationvars "$rep=10, $net=cost_scenario, $lambda=100, $a=1, $ctlg=1e5, $F=nrr, $ttl=10, $D=costaware0.01, $R=lru, $csize=1e3, $window=60, $variance=0.05, $mytime=1800000, $kappa=1, $priceratiovalue=5, $splits=0_0.5_0.5, $pricebits=0"
attr iterationvars2 "$rep=10, $net=cost_scenario, $lambda=100, $a=1, $ctlg=1e5, $F=nrr, $ttl=10, $D=costaware0.01, $R=lru, $csize=1e3, $window=60, $variance=0.05, $mytime=1800000, $kappa=1, $priceratiovalue=5, $splits=0_0.5_0.5, $pricebits=0, $repetition=0"
attr kappa 1
attr lambda 100
attr measurement "$rep=10, $net=cost_scenario, $lambda=100, $a=1, $ctlg=1e5, $F=nrr, $ttl=10, $D=costaware0.01, $R=lru, $csize=1e3, $window=60, $variance=0.05, $mytime=1800000, $kappa=1, $priceratiovalue=5, $splits=0_0.5_0.5, $pricebits=0"
attr mytime 1800000
attr net cost_scenario
attr network networks.${net=cost_scenario}_network
attr pricebits 0
attr priceratiovalue 5
attr processid 12015
attr rep 10
attr repetition 0
attr replication #0
attr resultdir results
attr runnumber 197
attr seedset 10
attr splits 0_0.5_0.5
attr ttl 10
attr variance 0.05
attr window 60

scalar . 	a 	1
scalar . 	csize 	1e3
scalar . 	ctlg 	1e5
scalar . 	kappa 	1
scalar . 	lambda 	100
scalar . 	mytime 	1800000
scalar . 	pricebits 	0
scalar . 	priceratiovalue 	5
scalar . 	rep 	10
scalar . 	ttl 	10
scalar . 	variance 	0.05
scalar . 	window 	60
scalar cost_scenario_network.content_distribution 	repo-0 	1
scalar cost_scenario_network.content_distribution 	repo-1 	2
scalar cost_scenario_network.content_distribution 	repo-2 	3
scalar cost_scenario_network.content_distribution 	client-0 	0
scalar cost_scenario_network.content_distribution 	repo-0_card 	0
scalar cost_scenario_network.content_distribution 	repo-0_price 	1
scalar cost_scenario_network.content_distribution 	repo-1_card 	50030
scalar cost_scenario_network.content_distribution 	repo-1_price 	0
scalar cost_scenario_network.content_distribution 	repo-2_card 	49970
scalar cost_scenario_network.content_distribution 	repo-2_price 	5
scalar cost_scenario_network.statistics 	repo_popularity[0] 	0
scalar cost_scenario_network.statistics 	repo_popularity[1] 	0.52775093001378
scalar cost_scenario_network.statistics 	repo_popularity[2] 	0.47224906998623
scalar cost_scenario_network.statistics 	stabilization_time 	2427.1
scalar cost_scenario_network.statistics 	p_hit 	0.17489996359156
scalar cost_scenario_network.statistics 	interests 	76605171.75
scalar cost_scenario_network.statistics 	data 	31603465
scalar cost_scenario_network.statistics 	hdistance 	1.4045451731682
scalar cost_scenario_network.statistics 	avg_time 	0
scalar cost_scenario_network.statistics 	downloads 	180006827
scalar cost_scenario_network.statistics 	total_cost 	157061520
scalar cost_scenario_network.statistics 	total_replicas 	100000
scalar cost_scenario_network.statistics 	inner_hit 	0.29772741341638
scalar cost_scenario_network.statistics 	interests_sent 	180006827
scalar cost_scenario_network.node[0].core_layer 	interests[0] 	180006827
scalar cost_scenario_network.node[0].core_layer 	data[0] 	126413860
scalar cost_scenario_network.node[0].core_layer 	repo_int[0] 	126413860
scalar cost_scenario_network.node[0].content_store 	p_hit[0] 	0.29772741341638
scalar cost_scenario_network.node[0].content_store 	hits[0] 	53592967
scalar cost_scenario_network.node[0].content_store 	misses[0] 	126413860
scalar cost_scenario_network.node[0].content_store 	decision_yes[0] 	522892
scalar cost_scenario_network.node[0].content_store 	decision_no[0] 	125890968
scalar cost_scenario_network.node[0].content_store 	decision_ratio[0] 	0.0041363502388108
scalar cost_scenario_network.node[0].content_store 	cache_value[0] 	18.004142068667
scalar cost_scenario_network.node[0].content_store 	average_price_of_cache[0] 	5
scalar cost_scenario_network.node[0].content_store 	correction_factor[0] 	0.0033333333333333
scalar cost_scenario_network.node[0].content_store 	kappa[0] 	1
scalar cost_scenario_network.node[1].core_layer 	interests[1] 	0
scalar cost_scenario_network.node[1].core_layer 	data[1] 	0
scalar cost_scenario_network.node[1].content_store 	p_hit[1] 	-nan
scalar cost_scenario_network.node[1].content_store 	hits[1] 	0
scalar cost_scenario_network.node[1].content_store 	misses[1] 	0
scalar cost_scenario_network.node[1].content_store 	decision_yes[1] 	0
scalar cost_scenario_network.node[1].content_store 	decision_no[1] 	0
scalar cost_scenario_network.node[1].content_store 	decision_ratio[1] 	0
scalar cost_scenario_network.node[1].content_store 	cache_value[1] 	1.3325606587516e-316
scalar cost_scenario_network.node[1].content_store 	average_price_of_cache[1] 	-nan
scalar cost_scenario_network.node[1].content_store 	correction_factor[1] 	0.0033333333333333
scalar cost_scenario_network.node[1].content_store 	kappa[1] 	1
scalar cost_scenario_network.node[2].core_layer 	interests[2] 	95001556
scalar cost_scenario_network.node[2].core_layer 	repo_load[2] 	95001556
scalar cost_scenario_network.node[2].core_layer 	data[2] 	0
scalar cost_scenario_network.node[2].content_store 	p_hit[2] 	0
scalar cost_scenario_network.node[2].content_store 	hits[2] 	0
scalar cost_scenario_network.node[2].content_store 	misses[2] 	95001556
scalar cost_scenario_network.node[2].content_store 	decision_yes[2] 	0
scalar cost_scenario_network.node[2].content_store 	decision_no[2] 	95001556
scalar cost_scenario_network.node[2].content_store 	decision_ratio[2] 	0
scalar cost_scenario_network.node[2].content_store 	cache_value[2] 	1.3327195502633e-316
scalar cost_scenario_network.node[2].content_store 	average_price_of_cache[2] 	-nan
scalar cost_scenario_network.node[2].content_store 	correction_factor[2] 	0.0033333333333333
scalar cost_scenario_network.node[2].content_store 	kappa[2] 	1
scalar cost_scenario_network.node[3].core_layer 	interests[3] 	31412304
scalar cost_scenario_network.node[3].core_layer 	repo_load[3] 	31412304
scalar cost_scenario_network.node[3].core_layer 	data[3] 	0
scalar cost_scenario_network.node[3].content_store 	p_hit[3] 	0
scalar cost_scenario_network.node[3].content_store 	hits[3] 	0
scalar cost_scenario_network.node[3].content_store 	misses[3] 	31412304
scalar cost_scenario_network.node[3].content_store 	decision_yes[3] 	0
scalar cost_scenario_network.node[3].content_store 	decision_no[3] 	31412304
scalar cost_scenario_network.node[3].content_store 	decision_ratio[3] 	0
scalar cost_scenario_network.node[3].content_store 	cache_value[3] 	1.332878441775e-316
scalar cost_scenario_network.node[3].content_store 	average_price_of_cache[3] 	-nan
scalar cost_scenario_network.node[3].content_store 	correction_factor[3] 	0.0033333333333333
scalar cost_scenario_network.node[3].content_store 	kappa[3] 	1
scalar cost_scenario_network.client[0] 	hdistance[0] 	1.4045451731682
scalar cost_scenario_network.client[0] 	downloads[0] 	180006827
scalar cost_scenario_network.client[0] 	avg_time[0] 	0
scalar cost_scenario_network.client[0] 	interests_sent[0] 	180006827
