version 2
run General-36-20140520-21:55:15-464
attr D tailandrank
attr F nrr
attr R lru
attr a 1
attr configname General
attr csize 1e5
attr ctlg 1e7
attr datetime 20140520-21:55:15
attr experiment General
attr inifile omnetpp.ini
attr iterationvars "$net=one_cache_scenario_3_links, $rep=2, $priceratiovalue=10, $weights=0.333_0.333_0.334, $a=1, $ctlg=1e7, $F=nrr, $ttl=1000, $D=tailandrank, $xi=1, $R=lru, $csize=1e5, $pricebits=0, $mytime=1800"
attr iterationvars2 "$net=one_cache_scenario_3_links, $rep=2, $priceratiovalue=10, $weights=0.333_0.333_0.334, $a=1, $ctlg=1e7, $F=nrr, $ttl=1000, $D=tailandrank, $xi=1, $R=lru, $csize=1e5, $pricebits=0, $mytime=1800, $repetition=0"
attr measurement "$net=one_cache_scenario_3_links, $rep=2, $priceratiovalue=10, $weights=0.333_0.333_0.334, $a=1, $ctlg=1e7, $F=nrr, $ttl=1000, $D=tailandrank, $xi=1, $R=lru, $csize=1e5, $pricebits=0, $mytime=1800"
attr mytime 1800
attr net one_cache_scenario_3_links
attr network networks.${net=one_cache_scenario_3_links}_network
attr pricebits 0
attr priceratiovalue 10
attr processid 464
attr rep 2
attr repetition 0
attr replication #0
attr resultdir results
attr runnumber 36
attr seedset 2
attr ttl 1000
attr weights 0.333_0.333_0.334
attr xi 1

scalar . 	a 	1
scalar . 	csize 	1e5
scalar . 	ctlg 	1e7
scalar . 	mytime 	1800
scalar . 	pricebits 	0
scalar . 	priceratiovalue 	10
scalar . 	rep 	2
scalar . 	ttl 	1000
scalar . 	xi 	1
scalar one_cache_scenario_3_links_network.content_distribution 	repo-0 	4
scalar one_cache_scenario_3_links_network.content_distribution 	repo-1 	5
scalar one_cache_scenario_3_links_network.content_distribution 	repo-2 	6
scalar one_cache_scenario_3_links_network.content_distribution 	client-0 	0
scalar one_cache_scenario_3_links_network.content_distribution 	repo-0_card 	3328890
scalar one_cache_scenario_3_links_network.content_distribution 	repo-1_card 	3330070
scalar one_cache_scenario_3_links_network.content_distribution 	repo-2_card 	3341040
scalar one_cache_scenario_3_links_network.statistics 	repo_popularity[0] 	0.38496101772114
scalar one_cache_scenario_3_links_network.statistics 	repo_popularity[1] 	0.30292421363612
scalar one_cache_scenario_3_links_network.statistics 	repo_popularity[2] 	0.31211476864274
scalar one_cache_scenario_3_links_network.node[1].face$o[2].channel 	price[1] 	0
scalar one_cache_scenario_3_links_network.node[1].face$o[2].channel 	represented_price[1] 	0
scalar one_cache_scenario_3_links_network.node[2].face$o[2].channel 	price[2] 	0
scalar one_cache_scenario_3_links_network.node[2].face$o[2].channel 	represented_price[2] 	0
scalar one_cache_scenario_3_links_network.node[3].face$o[2].channel 	price[3] 	0
scalar one_cache_scenario_3_links_network.node[3].face$o[2].channel 	represented_price[3] 	0
scalar one_cache_scenario_3_links_network.node[4].face$o[1].channel 	price[4] 	0
scalar one_cache_scenario_3_links_network.node[4].face$o[1].channel 	represented_price[4] 	0
scalar one_cache_scenario_3_links_network.node[5].face$o[1].channel 	price[5] 	1
scalar one_cache_scenario_3_links_network.node[5].face$o[1].channel 	represented_price[5] 	1
scalar one_cache_scenario_3_links_network.node[6].face$o[1].channel 	price[6] 	10
scalar one_cache_scenario_3_links_network.node[6].face$o[1].channel 	represented_price[6] 	10
scalar one_cache_scenario_3_links_network.statistics 	p_hit 	0.37978376690541
scalar one_cache_scenario_3_links_network.statistics 	interests 	43920.857142857
scalar one_cache_scenario_3_links_network.statistics 	data 	18160.285714286
scalar one_cache_scenario_3_links_network.statistics 	hdistance 	0.70496439741798
scalar one_cache_scenario_3_links_network.statistics 	avg_time 	0
scalar one_cache_scenario_3_links_network.statistics 	downloads 	180324
scalar one_cache_scenario_3_links_network.statistics 	total_cost 	235066
scalar one_cache_scenario_3_links_network.statistics 	total_replicas 	10000000
scalar one_cache_scenario_3_links_network.statistics 	interests_sent 	180324
scalar one_cache_scenario_3_links_network.node[0].core_layer 	interests[0] 	180324
scalar one_cache_scenario_3_links_network.node[0].core_layer 	data[0] 	63561
scalar one_cache_scenario_3_links_network.node[0].core_layer 	repo_int[0] 	63561
scalar one_cache_scenario_3_links_network.node[0].content_store 	p_hit[0] 	0.64751780129101
scalar one_cache_scenario_3_links_network.node[0].content_store 	hits[0] 	116763
scalar one_cache_scenario_3_links_network.node[0].content_store 	misses[0] 	63561
scalar one_cache_scenario_3_links_network.node[0].content_store 	decision_yes[0] 	5666
scalar one_cache_scenario_3_links_network.node[0].content_store 	decision_no[0] 	57895
scalar one_cache_scenario_3_links_network.node[0].content_store 	decision_ratio[0] 	0.089142713299036
scalar one_cache_scenario_3_links_network.node[1].core_layer 	interests[1] 	21077
scalar one_cache_scenario_3_links_network.node[1].core_layer 	data[1] 	21077
scalar one_cache_scenario_3_links_network.node[1].content_store 	p_hit[1] 	0
scalar one_cache_scenario_3_links_network.node[1].content_store 	hits[1] 	0
scalar one_cache_scenario_3_links_network.node[1].content_store 	misses[1] 	21077
scalar one_cache_scenario_3_links_network.node[1].content_store 	decision_yes[1] 	0
scalar one_cache_scenario_3_links_network.node[1].content_store 	decision_no[1] 	21077
scalar one_cache_scenario_3_links_network.node[1].content_store 	decision_ratio[1] 	0
scalar one_cache_scenario_3_links_network.node[2].core_layer 	interests[2] 	21086
scalar one_cache_scenario_3_links_network.node[2].core_layer 	data[2] 	21086
scalar one_cache_scenario_3_links_network.node[2].content_store 	p_hit[2] 	0
scalar one_cache_scenario_3_links_network.node[2].content_store 	hits[2] 	0
scalar one_cache_scenario_3_links_network.node[2].content_store 	misses[2] 	21086
scalar one_cache_scenario_3_links_network.node[2].content_store 	decision_yes[2] 	0
scalar one_cache_scenario_3_links_network.node[2].content_store 	decision_no[2] 	21086
scalar one_cache_scenario_3_links_network.node[2].content_store 	decision_ratio[2] 	0
scalar one_cache_scenario_3_links_network.node[3].core_layer 	interests[3] 	21398
scalar one_cache_scenario_3_links_network.node[3].core_layer 	data[3] 	21398
scalar one_cache_scenario_3_links_network.node[3].content_store 	p_hit[3] 	0
scalar one_cache_scenario_3_links_network.node[3].content_store 	hits[3] 	0
scalar one_cache_scenario_3_links_network.node[3].content_store 	misses[3] 	21398
scalar one_cache_scenario_3_links_network.node[3].content_store 	decision_yes[3] 	0
scalar one_cache_scenario_3_links_network.node[3].content_store 	decision_no[3] 	21398
scalar one_cache_scenario_3_links_network.node[3].content_store 	decision_ratio[3] 	0
scalar one_cache_scenario_3_links_network.node[4].core_layer 	interests[4] 	21077
scalar one_cache_scenario_3_links_network.node[4].core_layer 	repo_load[4] 	21077
scalar one_cache_scenario_3_links_network.node[4].core_layer 	data[4] 	0
scalar one_cache_scenario_3_links_network.node[4].content_store 	p_hit[4] 	0
scalar one_cache_scenario_3_links_network.node[4].content_store 	hits[4] 	0
scalar one_cache_scenario_3_links_network.node[4].content_store 	misses[4] 	21077
scalar one_cache_scenario_3_links_network.node[4].content_store 	decision_yes[4] 	0
scalar one_cache_scenario_3_links_network.node[4].content_store 	decision_no[4] 	21077
scalar one_cache_scenario_3_links_network.node[4].content_store 	decision_ratio[4] 	0
scalar one_cache_scenario_3_links_network.node[5].core_layer 	interests[5] 	21086
scalar one_cache_scenario_3_links_network.node[5].core_layer 	repo_load[5] 	21086
scalar one_cache_scenario_3_links_network.node[5].core_layer 	data[5] 	0
scalar one_cache_scenario_3_links_network.node[5].content_store 	p_hit[5] 	0
scalar one_cache_scenario_3_links_network.node[5].content_store 	hits[5] 	0
scalar one_cache_scenario_3_links_network.node[5].content_store 	misses[5] 	21086
scalar one_cache_scenario_3_links_network.node[5].content_store 	decision_yes[5] 	0
scalar one_cache_scenario_3_links_network.node[5].content_store 	decision_no[5] 	21086
scalar one_cache_scenario_3_links_network.node[5].content_store 	decision_ratio[5] 	0
scalar one_cache_scenario_3_links_network.node[6].core_layer 	interests[6] 	21398
scalar one_cache_scenario_3_links_network.node[6].core_layer 	repo_load[6] 	21398
scalar one_cache_scenario_3_links_network.node[6].core_layer 	data[6] 	0
scalar one_cache_scenario_3_links_network.node[6].content_store 	p_hit[6] 	0
scalar one_cache_scenario_3_links_network.node[6].content_store 	hits[6] 	0
scalar one_cache_scenario_3_links_network.node[6].content_store 	misses[6] 	21398
scalar one_cache_scenario_3_links_network.node[6].content_store 	decision_yes[6] 	0
scalar one_cache_scenario_3_links_network.node[6].content_store 	decision_no[6] 	21398
scalar one_cache_scenario_3_links_network.node[6].content_store 	decision_ratio[6] 	0
scalar one_cache_scenario_3_links_network.client[0] 	hdistance[0] 	0.70496439741798
scalar one_cache_scenario_3_links_network.client[0] 	downloads[0] 	180324
scalar one_cache_scenario_3_links_network.client[0] 	avg_time[0] 	0
scalar one_cache_scenario_3_links_network.client[0] 	interests_sent[0] 	180324
