version 2
run General-15-20150720-19:25:43-15224
attr C 1e4
attr D lce
attr F spr
attr R always_highq
attr a 1
attr brates 0.3_0.7_1.5_2.5_3.5
attr configname General
attr ctlg 1e6
attr datetime 20150720-19:25:43
attr experiment General
attr inifile omnetpp.ini
attr iterationvars "$net=abilene_nodelay, $rep=7, $lambda=100, $a=1, $ctlg=1e6, $brates=0.3_0.7_1.5_2.5_3.5, $F=spr, $ttl=1000, $D=lce, $R=always_highq, $C=1e4, $window=60, $variance=0.05, $mytime=1800"
attr iterationvars2 "$net=abilene_nodelay, $rep=7, $lambda=100, $a=1, $ctlg=1e6, $brates=0.3_0.7_1.5_2.5_3.5, $F=spr, $ttl=1000, $D=lce, $R=always_highq, $C=1e4, $window=60, $variance=0.05, $mytime=1800, $repetition=0"
attr lambda 100
attr measurement "$net=abilene_nodelay, $rep=7, $lambda=100, $a=1, $ctlg=1e6, $brates=0.3_0.7_1.5_2.5_3.5, $F=spr, $ttl=1000, $D=lce, $R=always_highq, $C=1e4, $window=60, $variance=0.05, $mytime=1800"
attr mytime 1800
attr net abilene_nodelay
attr network networks.${net=abilene_nodelay}_network
attr processid 15224
attr rep 7
attr repetition 0
attr replication #0
attr resultdir results
attr runnumber 15
attr seedset 7
attr ttl 1000
attr variance 0.05
attr window 60

scalar . 	C 	1e4
scalar . 	a 	1
scalar . 	ctlg 	1e6
scalar . 	lambda 	100
scalar . 	mytime 	1800
scalar . 	rep 	7
scalar . 	ttl 	1000
scalar . 	variance 	0.05
scalar . 	window 	60
scalar abilene_nodelay_network.content_distribution 	repo-0 	5
scalar abilene_nodelay_network.content_distribution 	repo-1 	4
scalar abilene_nodelay_network.content_distribution 	repo-2 	0
scalar abilene_nodelay_network.content_distribution 	repo-3 	6
scalar abilene_nodelay_network.content_distribution 	repo-4 	8
scalar abilene_nodelay_network.content_distribution 	repo-5 	2
scalar abilene_nodelay_network.content_distribution 	repo-6 	10
scalar abilene_nodelay_network.content_distribution 	repo-7 	7
scalar abilene_nodelay_network.content_distribution 	repo-8 	9
scalar abilene_nodelay_network.content_distribution 	repo-9 	1
scalar abilene_nodelay_network.content_distribution 	repo-10 	3
scalar abilene_nodelay_network.content_distribution 	client-0 	3
scalar abilene_nodelay_network.content_distribution 	client-1 	2
scalar abilene_nodelay_network.content_distribution 	client-2 	7
scalar abilene_nodelay_network.content_distribution 	client-3 	10
scalar abilene_nodelay_network.content_distribution 	client-4 	9
scalar abilene_nodelay_network.content_distribution 	client-5 	4
scalar abilene_nodelay_network.content_distribution 	client-6 	1
scalar abilene_nodelay_network.content_distribution 	client-7 	0
scalar abilene_nodelay_network.content_distribution 	client-8 	5
scalar abilene_nodelay_network.content_distribution 	client-9 	6
scalar abilene_nodelay_network.content_distribution 	client-10 	8
scalar abilene_nodelay_network.content_distribution 	repo-0_card 	90427
scalar abilene_nodelay_network.content_distribution 	repo-0_price 	0
scalar abilene_nodelay_network.content_distribution 	repo-1_card 	90791
scalar abilene_nodelay_network.content_distribution 	repo-1_price 	0
scalar abilene_nodelay_network.content_distribution 	repo-2_card 	91145
scalar abilene_nodelay_network.content_distribution 	repo-2_price 	0
scalar abilene_nodelay_network.content_distribution 	repo-3_card 	90716
scalar abilene_nodelay_network.content_distribution 	repo-3_price 	0
scalar abilene_nodelay_network.content_distribution 	repo-4_card 	91056
scalar abilene_nodelay_network.content_distribution 	repo-4_price 	0
scalar abilene_nodelay_network.content_distribution 	repo-5_card 	90898
scalar abilene_nodelay_network.content_distribution 	repo-5_price 	0
scalar abilene_nodelay_network.content_distribution 	repo-6_card 	90938
scalar abilene_nodelay_network.content_distribution 	repo-6_price 	0
scalar abilene_nodelay_network.content_distribution 	repo-7_card 	90969
scalar abilene_nodelay_network.content_distribution 	repo-7_price 	0
scalar abilene_nodelay_network.content_distribution 	repo-8_card 	91217
scalar abilene_nodelay_network.content_distribution 	repo-8_price 	0
scalar abilene_nodelay_network.content_distribution 	repo-9_card 	91141
scalar abilene_nodelay_network.content_distribution 	repo-9_price 	0
scalar abilene_nodelay_network.content_distribution 	repo-10_card 	90702
scalar abilene_nodelay_network.content_distribution 	repo-10_price 	0
scalar abilene_nodelay_network.statistics 	stabilization_time 	292.6
scalar abilene_nodelay_network.statistics 	p_hit 	0.13766555968699
scalar abilene_nodelay_network.statistics 	interests 	722960.90909091
scalar abilene_nodelay_network.statistics 	data 	314126.63636364
scalar abilene_nodelay_network.statistics 	hdistance 	1.3668631290054
scalar abilene_nodelay_network.statistics 	avg_time 	0
scalar abilene_nodelay_network.statistics 	downloads 	1978613
scalar abilene_nodelay_network.statistics 	total_cost 	0
scalar abilene_nodelay_network.statistics 	total_replicas 	1000000
scalar abilene_nodelay_network.statistics 	"representations_downloaded 0.446686:0:0:0:0.553314:" 	0
scalar abilene_nodelay_network.statistics 	"slots_per_representation 100:233:500:833:1167:" 	0
scalar abilene_nodelay_network.statistics 	inner_hit 	2170.4468701055
scalar abilene_nodelay_network.statistics 	execution_time 	147
scalar abilene_nodelay_network.node[0].core_layer 	interests[0] 	435201
scalar abilene_nodelay_network.node[0].core_layer 	repo_load[0] 	207566
scalar abilene_nodelay_network.node[0].core_layer 	data[0] 	133035
scalar abilene_nodelay_network.node[0].core_layer 	slots_sent[face$o[1]->client[0]] 	130804557
scalar abilene_nodelay_network.node[0].core_layer 	slots_sent[face$o[2]->node[1]] 	59921498
scalar abilene_nodelay_network.node[0].core_layer 	slots_sent[face$o[3]->node[10]] 	16957528
scalar abilene_nodelay_network.node[0].content_store 	p_hit[0] 	0.21737082405601
scalar abilene_nodelay_network.node[0].content_store 	hits[0] 	94600
scalar abilene_nodelay_network.node[0].content_store 	misses[0] 	340601
scalar abilene_nodelay_network.node[0].content_store 	decision_yes[0] 	72103
scalar abilene_nodelay_network.node[0].content_store 	decision_no[0] 	268498
scalar abilene_nodelay_network.node[0].content_store 	decision_ratio[0] 	0.21169344775852
scalar abilene_nodelay_network.node[0].proactive_component 	hdistance[0].proactive_component 	2.3042956090741
scalar abilene_nodelay_network.node[0].proactive_component 	downloads[0].proactive_component 	157370
scalar abilene_nodelay_network.node[0].proactive_component 	avg_time[0].proactive_component 	0
scalar abilene_nodelay_network.node[1].core_layer 	interests[1] 	869108
scalar abilene_nodelay_network.node[1].core_layer 	repo_load[1] 	224287
scalar abilene_nodelay_network.node[1].core_layer 	data[1] 	410365
scalar abilene_nodelay_network.node[1].core_layer 	slots_sent[face$o[1]->client[1]] 	124995494
scalar abilene_nodelay_network.node[1].core_layer 	slots_sent[face$o[2]->node[0]] 	72033944
scalar abilene_nodelay_network.node[1].core_layer 	slots_sent[face$o[3]->node[10]] 	55226337
scalar abilene_nodelay_network.node[1].core_layer 	slots_sent[face$o[4]->node[2]] 	147828683
scalar abilene_nodelay_network.node[1].content_store 	p_hit[1] 	0.12048445072419
scalar abilene_nodelay_network.node[1].content_store 	hits[1] 	104714
scalar abilene_nodelay_network.node[1].content_store 	misses[1] 	764394
scalar abilene_nodelay_network.node[1].content_store 	decision_yes[1] 	214836
scalar abilene_nodelay_network.node[1].content_store 	decision_no[1] 	419816
scalar abilene_nodelay_network.node[1].content_store 	decision_ratio[1] 	0.33850992354865
scalar abilene_nodelay_network.node[1].proactive_component 	hdistance[1].proactive_component 	2.3723467806671
scalar abilene_nodelay_network.node[1].proactive_component 	downloads[1].proactive_component 	321402
scalar abilene_nodelay_network.node[1].proactive_component 	avg_time[1].proactive_component 	0
scalar abilene_nodelay_network.node[2].core_layer 	interests[2] 	1196932
scalar abilene_nodelay_network.node[2].core_layer 	repo_load[2] 	242101
scalar abilene_nodelay_network.node[2].core_layer 	data[2] 	617406
scalar abilene_nodelay_network.node[2].core_layer 	slots_sent[face$o[1]->client[2]] 	118925700
scalar abilene_nodelay_network.node[2].core_layer 	slots_sent[face$o[2]->node[1]] 	159149624
scalar abilene_nodelay_network.node[2].core_layer 	slots_sent[face$o[3]->node[3]] 	190878173
scalar abilene_nodelay_network.node[2].core_layer 	slots_sent[face$o[4]->node[8]] 	75438767
scalar abilene_nodelay_network.node[2].content_store 	p_hit[2] 	0.09121988550728
scalar abilene_nodelay_network.node[2].content_store 	hits[2] 	109184
scalar abilene_nodelay_network.node[2].content_store 	misses[2] 	1087748
scalar abilene_nodelay_network.node[2].content_store 	decision_yes[2] 	322276
scalar abilene_nodelay_network.node[2].content_store 	decision_no[2] 	537231
scalar abilene_nodelay_network.node[2].content_store 	decision_ratio[2] 	0.37495447971919
scalar abilene_nodelay_network.node[2].proactive_component 	hdistance[2].proactive_component 	2.3454963109523
scalar abilene_nodelay_network.node[2].proactive_component 	downloads[2].proactive_component 	445779
scalar abilene_nodelay_network.node[2].proactive_component 	avg_time[2].proactive_component 	0
scalar abilene_nodelay_network.node[3].core_layer 	interests[3] 	1113107
scalar abilene_nodelay_network.node[3].core_layer 	repo_load[3] 	232592
scalar abilene_nodelay_network.node[3].core_layer 	data[3] 	567797
scalar abilene_nodelay_network.node[3].core_layer 	slots_sent[face$o[1]->client[3]] 	121598053
scalar abilene_nodelay_network.node[3].core_layer 	slots_sent[face$o[2]->node[2]] 	186799815
scalar abilene_nodelay_network.node[3].core_layer 	slots_sent[face$o[3]->node[4]] 	117126677
scalar abilene_nodelay_network.node[3].core_layer 	slots_sent[face$o[4]->node[7]] 	83533392
scalar abilene_nodelay_network.node[3].content_store 	p_hit[3] 	0.098067840737683
scalar abilene_nodelay_network.node[3].content_store 	hits[3] 	109160
scalar abilene_nodelay_network.node[3].content_store 	misses[3] 	1003947
scalar abilene_nodelay_network.node[3].content_store 	decision_yes[3] 	297126
scalar abilene_nodelay_network.node[3].content_store 	decision_no[3] 	503263
scalar abilene_nodelay_network.node[3].content_store 	decision_ratio[3] 	0.37122699087569
scalar abilene_nodelay_network.node[3].proactive_component 	hdistance[3].proactive_component 	2.3689392765859
scalar abilene_nodelay_network.node[3].proactive_component 	downloads[3].proactive_component 	413152
scalar abilene_nodelay_network.node[3].proactive_component 	avg_time[3].proactive_component 	0
scalar abilene_nodelay_network.node[4].core_layer 	interests[4] 	644186
scalar abilene_nodelay_network.node[4].core_layer 	repo_load[4] 	241090
scalar abilene_nodelay_network.node[4].core_layer 	data[4] 	258479
scalar abilene_nodelay_network.node[4].core_layer 	slots_sent[face$o[1]->client[4]] 	112694701
scalar abilene_nodelay_network.node[4].core_layer 	slots_sent[face$o[2]->node[3]] 	104841955
scalar abilene_nodelay_network.node[4].core_layer 	slots_sent[face$o[3]->node[5]] 	62796322
scalar abilene_nodelay_network.node[4].content_store 	p_hit[4] 	0.13399701328498
scalar abilene_nodelay_network.node[4].content_store 	hits[4] 	86319
scalar abilene_nodelay_network.node[4].content_store 	misses[4] 	557867
scalar abilene_nodelay_network.node[4].content_store 	decision_yes[4] 	136942
scalar abilene_nodelay_network.node[4].content_store 	decision_no[4] 	362627
scalar abilene_nodelay_network.node[4].content_store 	decision_ratio[4] 	0.27412029169144
scalar abilene_nodelay_network.node[4].proactive_component 	hdistance[4].proactive_component 	2.2798181692842
scalar abilene_nodelay_network.node[4].proactive_component 	downloads[4].proactive_component 	246603
scalar abilene_nodelay_network.node[4].proactive_component 	avg_time[4].proactive_component 	0
scalar abilene_nodelay_network.node[5].core_layer 	interests[5] 	475596
scalar abilene_nodelay_network.node[5].core_layer 	repo_load[5] 	206119
scalar abilene_nodelay_network.node[5].core_layer 	data[5] 	159715
scalar abilene_nodelay_network.node[5].core_layer 	slots_sent[face$o[1]->client[5]] 	131130301
scalar abilene_nodelay_network.node[5].core_layer 	slots_sent[face$o[2]->node[4]] 	54838337
scalar abilene_nodelay_network.node[5].core_layer 	slots_sent[face$o[3]->node[6]] 	40761126
scalar abilene_nodelay_network.node[5].content_store 	p_hit[5] 	0.20385999882253
scalar abilene_nodelay_network.node[5].content_store 	hits[5] 	96955
scalar abilene_nodelay_network.node[5].content_store 	misses[5] 	378641
scalar abilene_nodelay_network.node[5].content_store 	decision_yes[5] 	85874
scalar abilene_nodelay_network.node[5].content_store 	decision_no[5] 	279960
scalar abilene_nodelay_network.node[5].content_store 	decision_ratio[5] 	0.23473487975421
scalar abilene_nodelay_network.node[5].proactive_component 	hdistance[5].proactive_component 	2.2904452533979
scalar abilene_nodelay_network.node[5].proactive_component 	downloads[5].proactive_component 	172239
scalar abilene_nodelay_network.node[5].proactive_component 	avg_time[5].proactive_component 	0
scalar abilene_nodelay_network.node[6].core_layer 	interests[6] 	555325
scalar abilene_nodelay_network.node[6].core_layer 	repo_load[6] 	213808
scalar abilene_nodelay_network.node[6].core_layer 	data[6] 	210000
scalar abilene_nodelay_network.node[6].core_layer 	slots_sent[face$o[1]->client[6]] 	125995350
scalar abilene_nodelay_network.node[6].core_layer 	slots_sent[face$o[2]->node[5]] 	44802736
scalar abilene_nodelay_network.node[6].core_layer 	slots_sent[face$o[3]->node[7]] 	86425655
scalar abilene_nodelay_network.node[6].content_store 	p_hit[6] 	0.17198937559087
scalar abilene_nodelay_network.node[6].content_store 	hits[6] 	95510
scalar abilene_nodelay_network.node[6].content_store 	misses[6] 	459815
scalar abilene_nodelay_network.node[6].content_store 	decision_yes[6] 	111664
scalar abilene_nodelay_network.node[6].content_store 	decision_no[6] 	312144
scalar abilene_nodelay_network.node[6].content_store 	decision_ratio[6] 	0.2634778012685
scalar abilene_nodelay_network.node[6].proactive_component 	hdistance[6].proactive_component 	2.236199780193
scalar abilene_nodelay_network.node[6].proactive_component 	downloads[6].proactive_component 	204725
scalar abilene_nodelay_network.node[6].proactive_component 	avg_time[6].proactive_component 	0
scalar abilene_nodelay_network.node[7].core_layer 	interests[7] 	799992
scalar abilene_nodelay_network.node[7].core_layer 	repo_load[7] 	224112
scalar abilene_nodelay_network.node[7].core_layer 	data[7] 	362262
scalar abilene_nodelay_network.node[7].core_layer 	slots_sent[face$o[1]->client[7]] 	127413631
scalar abilene_nodelay_network.node[7].core_layer 	slots_sent[face$o[2]->node[3]] 	78093014
scalar abilene_nodelay_network.node[7].core_layer 	slots_sent[face$o[3]->node[6]] 	99384362
scalar abilene_nodelay_network.node[7].core_layer 	slots_sent[face$o[4]->node[8]] 	69759559
scalar abilene_nodelay_network.node[7].content_store 	p_hit[7] 	0.13417759177592
scalar abilene_nodelay_network.node[7].content_store 	hits[7] 	107341
scalar abilene_nodelay_network.node[7].content_store 	misses[7] 	692651
scalar abilene_nodelay_network.node[7].content_store 	decision_yes[7] 	190599
scalar abilene_nodelay_network.node[7].content_store 	decision_no[7] 	395775
scalar abilene_nodelay_network.node[7].content_store 	decision_ratio[7] 	0.32504681312609
scalar abilene_nodelay_network.node[7].proactive_component 	hdistance[7].proactive_component 	2.2305506836108
scalar abilene_nodelay_network.node[7].proactive_component 	downloads[7].proactive_component 	292491
scalar abilene_nodelay_network.node[7].proactive_component 	avg_time[7].proactive_component 	0
scalar abilene_nodelay_network.node[8].core_layer 	interests[8] 	768048
scalar abilene_nodelay_network.node[8].core_layer 	repo_load[8] 	228454
scalar abilene_nodelay_network.node[8].core_layer 	data[8] 	337823
scalar abilene_nodelay_network.node[8].core_layer 	slots_sent[face$o[1]->client[8]] 	128417511
scalar abilene_nodelay_network.node[8].core_layer 	slots_sent[face$o[2]->node[2]] 	70980594
scalar abilene_nodelay_network.node[8].core_layer 	slots_sent[face$o[3]->node[7]] 	69636286
scalar abilene_nodelay_network.node[8].core_layer 	slots_sent[face$o[4]->node[9]] 	90878587
scalar abilene_nodelay_network.node[8].content_store 	p_hit[8] 	0.13921786138366
scalar abilene_nodelay_network.node[8].content_store 	hits[8] 	106926
scalar abilene_nodelay_network.node[8].content_store 	misses[8] 	661122
scalar abilene_nodelay_network.node[8].content_store 	decision_yes[8] 	177868
scalar abilene_nodelay_network.node[8].content_store 	decision_no[8] 	388409
scalar abilene_nodelay_network.node[8].content_store 	decision_ratio[8] 	0.31410069630234
scalar abilene_nodelay_network.node[8].proactive_component 	hdistance[8].proactive_component 	2.1391218233244
scalar abilene_nodelay_network.node[8].proactive_component 	downloads[8].proactive_component 	280718
scalar abilene_nodelay_network.node[8].proactive_component 	avg_time[8].proactive_component 	0
scalar abilene_nodelay_network.node[9].core_layer 	interests[9] 	563348
scalar abilene_nodelay_network.node[9].core_layer 	repo_load[9] 	227331
scalar abilene_nodelay_network.node[9].core_layer 	data[9] 	211576
scalar abilene_nodelay_network.node[9].core_layer 	slots_sent[face$o[1]->client[9]] 	118149232
scalar abilene_nodelay_network.node[9].core_layer 	slots_sent[face$o[2]->node[10]] 	52310154
scalar abilene_nodelay_network.node[9].core_layer 	slots_sent[face$o[3]->node[8]] 	78369130
scalar abilene_nodelay_network.node[9].content_store 	p_hit[9] 	0.15747459829448
scalar abilene_nodelay_network.node[9].content_store 	hits[9] 	88713
scalar abilene_nodelay_network.node[9].content_store 	misses[9] 	474635
scalar abilene_nodelay_network.node[9].content_store 	decision_yes[9] 	112202
scalar abilene_nodelay_network.node[9].content_store 	decision_no[9] 	326705
scalar abilene_nodelay_network.node[9].content_store 	decision_ratio[9] 	0.25563957740478
scalar abilene_nodelay_network.node[9].proactive_component 	hdistance[9].proactive_component 	2.1033706605897
scalar abilene_nodelay_network.node[9].proactive_component 	downloads[9].proactive_component 	214142
scalar abilene_nodelay_network.node[9].proactive_component 	avg_time[9].proactive_component 	0
scalar abilene_nodelay_network.node[10].core_layer 	interests[10] 	531727
scalar abilene_nodelay_network.node[10].core_layer 	repo_load[10] 	224056
scalar abilene_nodelay_network.node[10].core_layer 	data[10] 	186935
scalar abilene_nodelay_network.node[10].core_layer 	slots_sent[face$o[1]->client[10]] 	125883035
scalar abilene_nodelay_network.node[10].core_layer 	slots_sent[face$o[2]->node[0]] 	18203457
scalar abilene_nodelay_network.node[10].core_layer 	slots_sent[face$o[3]->node[1]] 	51195390
scalar abilene_nodelay_network.node[10].core_layer 	slots_sent[face$o[4]->node[9]] 	49998547
scalar abilene_nodelay_network.node[10].content_store 	p_hit[10] 	0.17936459875086
scalar abilene_nodelay_network.node[10].content_store 	hits[10] 	95373
scalar abilene_nodelay_network.node[10].content_store 	misses[10] 	436354
scalar abilene_nodelay_network.node[10].content_store 	decision_yes[10] 	99157
scalar abilene_nodelay_network.node[10].content_store 	decision_no[10] 	311834
scalar abilene_nodelay_network.node[10].content_store 	decision_ratio[10] 	0.24126319067814
scalar abilene_nodelay_network.node[10].proactive_component 	hdistance[10].proactive_component 	2.0796380919426
scalar abilene_nodelay_network.node[10].proactive_component 	downloads[10].proactive_component 	196514
scalar abilene_nodelay_network.node[10].proactive_component 	avg_time[10].proactive_component 	0
scalar abilene_nodelay_network.client[0] 	hdistance[0].real 	1.4915890766651
scalar abilene_nodelay_network.client[0] 	downloads[0].real 	179469
scalar abilene_nodelay_network.client[0] 	avg_time[0].real 	0
scalar abilene_nodelay_network.client[1] 	hdistance[1].real 	1.3519278005624
scalar abilene_nodelay_network.client[1] 	downloads[1].real 	179946
scalar abilene_nodelay_network.client[1] 	avg_time[1].real 	0
scalar abilene_nodelay_network.client[2] 	hdistance[2].real 	1.2373551518948
scalar abilene_nodelay_network.client[2] 	downloads[2].real 	178808
scalar abilene_nodelay_network.client[2] 	avg_time[2].real 	0
scalar abilene_nodelay_network.client[3] 	hdistance[3].real 	1.2659056004347
scalar abilene_nodelay_network.client[3] 	downloads[3].real 	180361
scalar abilene_nodelay_network.client[3] 	avg_time[3].real 	0
scalar abilene_nodelay_network.client[4] 	hdistance[4].real 	1.5001978608731
scalar abilene_nodelay_network.client[4] 	downloads[4].real 	179419
scalar abilene_nodelay_network.client[4] 	avg_time[4].real 	0
scalar abilene_nodelay_network.client[5] 	hdistance[5].real 	1.4980332980122
scalar abilene_nodelay_network.client[5] 	downloads[5].real 	180251
scalar abilene_nodelay_network.client[5] 	avg_time[5].real 	0
scalar abilene_nodelay_network.client[6] 	hdistance[6].real 	1.4462520042758
scalar abilene_nodelay_network.client[6] 	downloads[6].real 	179616
scalar abilene_nodelay_network.client[6] 	avg_time[6].real 	0
scalar abilene_nodelay_network.client[7] 	hdistance[7].real 	1.244772077629
scalar abilene_nodelay_network.client[7] 	downloads[7].real 	179469
scalar abilene_nodelay_network.client[7] 	avg_time[7].real 	0
scalar abilene_nodelay_network.client[8] 	hdistance[8].real 	1.2034949735523
scalar abilene_nodelay_network.client[8] 	downloads[8].real 	180545
scalar abilene_nodelay_network.client[8] 	avg_time[8].real 	0
scalar abilene_nodelay_network.client[9] 	hdistance[9].real 	1.3916453132177
scalar abilene_nodelay_network.client[9] 	downloads[9].real 	180689
scalar abilene_nodelay_network.client[9] 	avg_time[9].real 	0
scalar abilene_nodelay_network.client[10] 	hdistance[10].real 	1.4043212619418
scalar abilene_nodelay_network.client[10] 	downloads[10].real 	180040
scalar abilene_nodelay_network.client[10] 	avg_time[10].real 	0
