version 2
run General-3-20141031-15:24:21-8797
attr D fix0.01
attr F nrr
attr R lru
attr a 1
attr configname General
attr csize 1e3
attr ctlg 1e5
attr datetime 20141031-15:24:21
attr experiment General
attr inifile omnetpp.ini
attr iterationvars "$rep=21, $lambda=100, $a=1, $ctlg=1e5, $F=nrr, $ttl=10, $D=fix0.01, $R=lru, $csize=1e3, $window=60, $variance=0.05, $mytime=1800, $kappa=1, $priceratiovalue=10, $pricebits=0"
attr iterationvars2 "$rep=21, $lambda=100, $a=1, $ctlg=1e5, $F=nrr, $ttl=10, $D=fix0.01, $R=lru, $csize=1e3, $window=60, $variance=0.05, $mytime=1800, $kappa=1, $priceratiovalue=10, $pricebits=0, $repetition=0"
attr kappa 1
attr lambda 100
attr measurement "$rep=21, $lambda=100, $a=1, $ctlg=1e5, $F=nrr, $ttl=10, $D=fix0.01, $R=lru, $csize=1e3, $window=60, $variance=0.05, $mytime=1800, $kappa=1, $priceratiovalue=10, $pricebits=0"
attr mytime 1800
attr network networks.ws${rep}_network
attr pricebits 0
attr priceratiovalue 10
attr processid 8797
attr rep 21
attr repetition 0
attr replication #0
attr resultdir results
attr runnumber 3
attr seedset 21
attr ttl 10
attr variance 0.05
attr window 60

scalar . 	a 	1
scalar . 	csize 	1e3
scalar . 	ctlg 	1e5
scalar . 	kappa 	1
scalar . 	lambda 	100
scalar . 	mytime 	1800
scalar . 	pricebits 	0
scalar . 	priceratiovalue 	10
scalar . 	rep 	21
scalar . 	ttl 	10
scalar . 	variance 	0.05
scalar . 	window 	60
scalar ws21_network.content_distribution 	repo-0 	4
scalar ws21_network.content_distribution 	repo-1 	6
scalar ws21_network.content_distribution 	repo-2 	17
scalar ws21_network.content_distribution 	client-0 	19
scalar ws21_network.content_distribution 	client-1 	21
scalar ws21_network.content_distribution 	client-2 	16
scalar ws21_network.content_distribution 	repo-0_card 	33236
scalar ws21_network.content_distribution 	repo-0_price 	10
scalar ws21_network.content_distribution 	repo-1_card 	33620
scalar ws21_network.content_distribution 	repo-1_price 	0
scalar ws21_network.content_distribution 	repo-2_card 	33144
scalar ws21_network.content_distribution 	repo-2_price 	1
scalar ws21_network.statistics 	repo_popularity[0] 	0.38565226540178
scalar ws21_network.statistics 	repo_popularity[1] 	0.27887605636544
scalar ws21_network.statistics 	repo_popularity[2] 	0.33547167823279
scalar ws21_network.statistics 	stabilization_time 	36120
scalar ws21_network.statistics 	p_hit 	0.21204565247959
scalar ws21_network.statistics 	interests 	61743.136363636
scalar ws21_network.statistics 	data 	37095.454545455
scalar ws21_network.statistics 	hdistance 	1.9736862201895
scalar ws21_network.statistics 	avg_time 	0.007794903699
scalar ws21_network.statistics 	downloads 	542133
scalar ws21_network.statistics 	total_cost 	911601
scalar ws21_network.statistics 	total_replicas 	100000
scalar ws21_network.statistics 	inner_hit 	0.53136960856469
scalar ws21_network.statistics 	interests_sent 	542249
scalar ws21_network.node[0].core_layer 	interests[0] 	0
scalar ws21_network.node[0].core_layer 	data[0] 	0
scalar ws21_network.node[0].core_layer 	repo_int[0] 	254060
scalar ws21_network.node[0].content_store 	p_hit[0] 	-nan
scalar ws21_network.node[0].content_store 	hits[0] 	0
scalar ws21_network.node[0].content_store 	misses[0] 	0
scalar ws21_network.node[0].content_store 	decision_yes[0] 	0
scalar ws21_network.node[0].content_store 	decision_no[0] 	0
scalar ws21_network.node[0].content_store 	decision_ratio[0] 	0
scalar ws21_network.node[1].core_layer 	interests[1] 	0
scalar ws21_network.node[1].core_layer 	data[1] 	0
scalar ws21_network.node[1].content_store 	p_hit[1] 	-nan
scalar ws21_network.node[1].content_store 	hits[1] 	0
scalar ws21_network.node[1].content_store 	misses[1] 	0
scalar ws21_network.node[1].content_store 	decision_yes[1] 	0
scalar ws21_network.node[1].content_store 	decision_no[1] 	0
scalar ws21_network.node[1].content_store 	decision_ratio[1] 	0
scalar ws21_network.node[2].core_layer 	interests[2] 	26630
scalar ws21_network.node[2].core_layer 	data[2] 	8131
scalar ws21_network.node[2].content_store 	p_hit[2] 	0.69466766804356
scalar ws21_network.node[2].content_store 	hits[2] 	18499
scalar ws21_network.node[2].content_store 	misses[2] 	8131
scalar ws21_network.node[2].content_store 	decision_yes[2] 	55
scalar ws21_network.node[2].content_store 	decision_no[2] 	8076
scalar ws21_network.node[2].content_store 	decision_ratio[2] 	0.0067642356413725
scalar ws21_network.node[3].core_layer 	interests[3] 	33624
scalar ws21_network.node[3].core_layer 	data[3] 	29521
scalar ws21_network.node[3].content_store 	p_hit[3] 	0.12202593385677
scalar ws21_network.node[3].content_store 	hits[3] 	4103
scalar ws21_network.node[3].content_store 	misses[3] 	29521
scalar ws21_network.node[3].content_store 	decision_yes[3] 	302
scalar ws21_network.node[3].content_store 	decision_no[3] 	29219
scalar ws21_network.node[3].content_store 	decision_ratio[3] 	0.010230005758613
scalar ws21_network.node[4].core_layer 	interests[4] 	85322
scalar ws21_network.node[4].core_layer 	repo_load[4] 	81858
scalar ws21_network.node[4].core_layer 	data[4] 	0
scalar ws21_network.node[4].content_store 	p_hit[4] 	0.040599142073557
scalar ws21_network.node[4].content_store 	hits[4] 	3464
scalar ws21_network.node[4].content_store 	misses[4] 	81858
scalar ws21_network.node[4].content_store 	decision_yes[4] 	799
scalar ws21_network.node[4].content_store 	decision_no[4] 	81059
scalar ws21_network.node[4].content_store 	decision_ratio[4] 	0.0097608052969777
scalar ws21_network.node[5].core_layer 	interests[5] 	61626
scalar ws21_network.node[5].core_layer 	data[5] 	56739
scalar ws21_network.node[5].content_store 	p_hit[5] 	0.079300944406582
scalar ws21_network.node[5].content_store 	hits[5] 	4887
scalar ws21_network.node[5].content_store 	misses[5] 	56739
scalar ws21_network.node[5].content_store 	decision_yes[5] 	568
scalar ws21_network.node[5].content_store 	decision_no[5] 	56171
scalar ws21_network.node[5].content_store 	decision_ratio[5] 	0.010010750982569
scalar ws21_network.node[6].core_layer 	interests[6] 	81274
scalar ws21_network.node[6].core_layer 	repo_load[6] 	79181
scalar ws21_network.node[6].core_layer 	data[6] 	0
scalar ws21_network.node[6].content_store 	p_hit[6] 	0.025752393139257
scalar ws21_network.node[6].content_store 	hits[6] 	2093
scalar ws21_network.node[6].content_store 	misses[6] 	79181
scalar ws21_network.node[6].content_store 	decision_yes[6] 	824
scalar ws21_network.node[6].content_store 	decision_no[6] 	78357
scalar ws21_network.node[6].content_store 	decision_ratio[6] 	0.010406536921736
scalar ws21_network.node[7].core_layer 	interests[7] 	5523
scalar ws21_network.node[7].core_layer 	data[7] 	1517
scalar ws21_network.node[7].content_store 	p_hit[7] 	0.72533043635705
scalar ws21_network.node[7].content_store 	hits[7] 	4006
scalar ws21_network.node[7].content_store 	misses[7] 	1517
scalar ws21_network.node[7].content_store 	decision_yes[7] 	11
scalar ws21_network.node[7].content_store 	decision_no[7] 	1506
scalar ws21_network.node[7].content_store 	decision_ratio[7] 	0.007251153592617
scalar ws21_network.node[8].core_layer 	interests[8] 	28201
scalar ws21_network.node[8].core_layer 	data[8] 	26813
scalar ws21_network.node[8].content_store 	p_hit[8] 	0.049218112832878
scalar ws21_network.node[8].content_store 	hits[8] 	1388
scalar ws21_network.node[8].content_store 	misses[8] 	26813
scalar ws21_network.node[8].content_store 	decision_yes[8] 	267
scalar ws21_network.node[8].content_store 	decision_no[8] 	26546
scalar ws21_network.node[8].content_store 	decision_ratio[8] 	0.0099578562637527
scalar ws21_network.node[9].core_layer 	interests[9] 	0
scalar ws21_network.node[9].core_layer 	data[9] 	0
scalar ws21_network.node[9].content_store 	p_hit[9] 	-nan
scalar ws21_network.node[9].content_store 	hits[9] 	0
scalar ws21_network.node[9].content_store 	misses[9] 	0
scalar ws21_network.node[9].content_store 	decision_yes[9] 	0
scalar ws21_network.node[9].content_store 	decision_no[9] 	0
scalar ws21_network.node[9].content_store 	decision_ratio[9] 	0
scalar ws21_network.node[10].core_layer 	interests[10] 	144189
scalar ws21_network.node[10].core_layer 	data[10] 	133383
scalar ws21_network.node[10].content_store 	p_hit[10] 	0.074873950162634
scalar ws21_network.node[10].content_store 	hits[10] 	10796
scalar ws21_network.node[10].content_store 	misses[10] 	133393
scalar ws21_network.node[10].content_store 	decision_yes[10] 	1313
scalar ws21_network.node[10].content_store 	decision_no[10] 	132070
scalar ws21_network.node[10].content_store 	decision_ratio[10] 	0.0098438331721434
scalar ws21_network.node[11].core_layer 	interests[11] 	0
scalar ws21_network.node[11].core_layer 	data[11] 	0
scalar ws21_network.node[11].content_store 	p_hit[11] 	-nan
scalar ws21_network.node[11].content_store 	hits[11] 	0
scalar ws21_network.node[11].content_store 	misses[11] 	0
scalar ws21_network.node[11].content_store 	decision_yes[11] 	0
scalar ws21_network.node[11].content_store 	decision_no[11] 	0
scalar ws21_network.node[11].content_store 	decision_ratio[11] 	0
scalar ws21_network.node[12].core_layer 	interests[12] 	0
scalar ws21_network.node[12].core_layer 	data[12] 	0
scalar ws21_network.node[12].content_store 	p_hit[12] 	-nan
scalar ws21_network.node[12].content_store 	hits[12] 	0
scalar ws21_network.node[12].content_store 	misses[12] 	0
scalar ws21_network.node[12].content_store 	decision_yes[12] 	0
scalar ws21_network.node[12].content_store 	decision_no[12] 	0
scalar ws21_network.node[12].content_store 	decision_ratio[12] 	0
scalar ws21_network.node[13].core_layer 	interests[13] 	0
scalar ws21_network.node[13].core_layer 	data[13] 	0
scalar ws21_network.node[13].content_store 	p_hit[13] 	-nan
scalar ws21_network.node[13].content_store 	hits[13] 	0
scalar ws21_network.node[13].content_store 	misses[13] 	0
scalar ws21_network.node[13].content_store 	decision_yes[13] 	0
scalar ws21_network.node[13].content_store 	decision_no[13] 	0
scalar ws21_network.node[13].content_store 	decision_ratio[13] 	0
scalar ws21_network.node[14].core_layer 	interests[14] 	62336
scalar ws21_network.node[14].core_layer 	data[14] 	56973
scalar ws21_network.node[14].content_store 	p_hit[14] 	0.086017710472279
scalar ws21_network.node[14].content_store 	hits[14] 	5362
scalar ws21_network.node[14].content_store 	misses[14] 	56974
scalar ws21_network.node[14].content_store 	decision_yes[14] 	585
scalar ws21_network.node[14].content_store 	decision_no[14] 	56388
scalar ws21_network.node[14].content_store 	decision_ratio[14] 	0.010268021694487
scalar ws21_network.node[15].core_layer 	interests[15] 	16999
scalar ws21_network.node[15].core_layer 	data[15] 	1025
scalar ws21_network.node[15].content_store 	p_hit[15] 	0.9397023354315
scalar ws21_network.node[15].content_store 	hits[15] 	15974
scalar ws21_network.node[15].content_store 	misses[15] 	1025
scalar ws21_network.node[15].content_store 	decision_yes[15] 	8
scalar ws21_network.node[15].content_store 	decision_no[15] 	1017
scalar ws21_network.node[15].content_store 	decision_ratio[15] 	0.0078048780487805
scalar ws21_network.node[16].core_layer 	interests[16] 	292180
scalar ws21_network.node[16].core_layer 	data[16] 	230357
scalar ws21_network.node[16].content_store 	p_hit[16] 	0.21135601341639
scalar ws21_network.node[16].content_store 	hits[16] 	61754
scalar ws21_network.node[16].content_store 	misses[16] 	230426
scalar ws21_network.node[16].content_store 	decision_yes[16] 	2282
scalar ws21_network.node[16].content_store 	decision_no[16] 	228075
scalar ws21_network.node[16].content_store 	decision_ratio[16] 	0.0099063627326281
scalar ws21_network.node[17].core_layer 	interests[17] 	97899
scalar ws21_network.node[17].core_layer 	repo_load[17] 	93021
scalar ws21_network.node[17].core_layer 	data[17] 	0
scalar ws21_network.node[17].content_store 	p_hit[17] 	0.049826862378574
scalar ws21_network.node[17].content_store 	hits[17] 	4878
scalar ws21_network.node[17].content_store 	misses[17] 	93021
scalar ws21_network.node[17].content_store 	decision_yes[17] 	939
scalar ws21_network.node[17].content_store 	decision_no[17] 	92082
scalar ws21_network.node[17].content_store 	decision_ratio[17] 	0.010094494791499
scalar ws21_network.node[18].core_layer 	interests[18] 	8409
scalar ws21_network.node[18].core_layer 	data[18] 	1562
scalar ws21_network.node[18].content_store 	p_hit[18] 	0.81424664050422
scalar ws21_network.node[18].content_store 	hits[18] 	6847
scalar ws21_network.node[18].content_store 	misses[18] 	1562
scalar ws21_network.node[18].content_store 	decision_yes[18] 	14
scalar ws21_network.node[18].content_store 	decision_no[18] 	1548
scalar ws21_network.node[18].content_store 	decision_ratio[18] 	0.0089628681177977
scalar ws21_network.node[19].core_layer 	interests[19] 	195222
scalar ws21_network.node[19].core_layer 	data[19] 	119974
scalar ws21_network.node[19].content_store 	p_hit[19] 	0.38526395590661
scalar ws21_network.node[19].content_store 	hits[19] 	75212
scalar ws21_network.node[19].content_store 	misses[19] 	120010
scalar ws21_network.node[19].content_store 	decision_yes[19] 	1182
scalar ws21_network.node[19].content_store 	decision_no[19] 	118792
scalar ws21_network.node[19].content_store 	decision_ratio[19] 	0.0098521346291697
scalar ws21_network.node[20].core_layer 	interests[20] 	31504
scalar ws21_network.node[20].core_layer 	data[20] 	28201
scalar ws21_network.node[20].content_store 	p_hit[20] 	0.104843829355
scalar ws21_network.node[20].content_store 	hits[20] 	3303
scalar ws21_network.node[20].content_store 	misses[20] 	28201
scalar ws21_network.node[20].content_store 	decision_yes[20] 	311
scalar ws21_network.node[20].content_store 	decision_no[20] 	27890
scalar ws21_network.node[20].content_store 	decision_ratio[20] 	0.011027977731286
scalar ws21_network.node[21].core_layer 	interests[21] 	187411
scalar ws21_network.node[21].core_layer 	data[21] 	121904
scalar ws21_network.node[21].content_store 	p_hit[21] 	0.34931780952025
scalar ws21_network.node[21].content_store 	hits[21] 	65466
scalar ws21_network.node[21].content_store 	misses[21] 	121945
scalar ws21_network.node[21].content_store 	decision_yes[21] 	1317
scalar ws21_network.node[21].content_store 	decision_no[21] 	120587
scalar ws21_network.node[21].content_store 	decision_ratio[21] 	0.010803583147395
scalar ws21_network.client[16] 	hdistance[16] 	1.6872845365976
scalar ws21_network.client[16] 	downloads[16] 	180135
scalar ws21_network.client[16] 	avg_time[16] 	0.006293802113
scalar ws21_network.client[16] 	interests_sent[16] 	180174
scalar ws21_network.client[19] 	hdistance[19] 	2.2354144098335
scalar ws21_network.client[19] 	downloads[19] 	180932
scalar ws21_network.client[19] 	avg_time[19] 	0.00915523244
scalar ws21_network.client[19] 	interests_sent[19] 	180968
scalar ws21_network.client[21] 	hdistance[21] 	1.9983597141374
scalar ws21_network.client[21] 	downloads[21] 	181066
scalar ws21_network.client[21] 	avg_time[21] 	0.007935676544
scalar ws21_network.client[21] 	interests_sent[21] 	181107
