version 2
run General-10-20141030-19:09:22-5046
attr D fix0.01
attr F nrr
attr R lru
attr a 1
attr configname General
attr csize 1e3
attr ctlg 1e5
attr datetime 20141030-19:09:22
attr experiment General
attr inifile omnetpp.ini
attr iterationvars "$rep=7, $lambda=100, $a=1, $ctlg=1e5, $F=nrr, $ttl=10, $D=fix0.01, $R=lru, $csize=1e3, $window=60, $variance=0.05, $mytime=1800, $kappa=1, $priceratiovalue=10, $pricebits=0"
attr iterationvars2 "$rep=7, $lambda=100, $a=1, $ctlg=1e5, $F=nrr, $ttl=10, $D=fix0.01, $R=lru, $csize=1e3, $window=60, $variance=0.05, $mytime=1800, $kappa=1, $priceratiovalue=10, $pricebits=0, $repetition=0"
attr kappa 1
attr lambda 100
attr measurement "$rep=7, $lambda=100, $a=1, $ctlg=1e5, $F=nrr, $ttl=10, $D=fix0.01, $R=lru, $csize=1e3, $window=60, $variance=0.05, $mytime=1800, $kappa=1, $priceratiovalue=10, $pricebits=0"
attr mytime 1800
attr network networks.ws${rep}_network
attr pricebits 0
attr priceratiovalue 10
attr processid 5046
attr rep 7
attr repetition 0
attr replication #0
attr resultdir results
attr runnumber 10
attr seedset 7
attr ttl 10
attr variance 0.05
attr window 60

scalar . 	a 	1
scalar . 	csize 	1e3
scalar . 	ctlg 	1e5
scalar . 	kappa 	1
scalar . 	lambda 	100
scalar . 	mytime 	1800
scalar . 	pricebits 	0
scalar . 	priceratiovalue 	10
scalar . 	rep 	7
scalar . 	ttl 	10
scalar . 	variance 	0.05
scalar . 	window 	60
scalar ws7_network.content_distribution 	repo-0 	21
scalar ws7_network.content_distribution 	repo-1 	4
scalar ws7_network.content_distribution 	repo-2 	12
scalar ws7_network.content_distribution 	client-0 	4
scalar ws7_network.content_distribution 	client-1 	6
scalar ws7_network.content_distribution 	client-2 	11
scalar ws7_network.content_distribution 	repo-0_card 	33105
scalar ws7_network.content_distribution 	repo-0_price 	0
scalar ws7_network.content_distribution 	repo-1_card 	33508
scalar ws7_network.content_distribution 	repo-1_price 	1
scalar ws7_network.content_distribution 	repo-2_card 	33387
scalar ws7_network.content_distribution 	repo-2_price 	10
scalar ws7_network.statistics 	repo_popularity[0] 	0.38081187055787
scalar ws7_network.statistics 	repo_popularity[1] 	0.26942063079195
scalar ws7_network.statistics 	repo_popularity[2] 	0.3497674986502
scalar ws7_network.statistics 	stabilization_time 	36060
scalar ws7_network.statistics 	p_hit 	0.20338082642601
scalar ws7_network.statistics 	interests 	57070.5
scalar ws7_network.statistics 	data 	32538.318181818
scalar ws7_network.statistics 	hdistance 	1.8537100542321
scalar ws7_network.statistics 	avg_time 	0.0068731565
scalar ws7_network.statistics 	downloads 	539603
scalar ws7_network.statistics 	total_cost 	978525
scalar ws7_network.statistics 	total_replicas 	100000
scalar ws7_network.statistics 	inner_hit 	0.4732534845062
scalar ws7_network.statistics 	interests_sent 	539711
scalar ws7_network.node[0].core_layer 	interests[0] 	0
scalar ws7_network.node[0].core_layer 	data[0] 	0
scalar ws7_network.node[0].core_layer 	repo_int[0] 	284234
scalar ws7_network.node[0].content_store 	p_hit[0] 	-nan
scalar ws7_network.node[0].content_store 	hits[0] 	0
scalar ws7_network.node[0].content_store 	misses[0] 	0
scalar ws7_network.node[0].content_store 	decision_yes[0] 	0
scalar ws7_network.node[0].content_store 	decision_no[0] 	0
scalar ws7_network.node[0].content_store 	decision_ratio[0] 	0
scalar ws7_network.node[1].core_layer 	interests[1] 	0
scalar ws7_network.node[1].core_layer 	data[1] 	0
scalar ws7_network.node[1].content_store 	p_hit[1] 	-nan
scalar ws7_network.node[1].content_store 	hits[1] 	0
scalar ws7_network.node[1].content_store 	misses[1] 	0
scalar ws7_network.node[1].content_store 	decision_yes[1] 	0
scalar ws7_network.node[1].content_store 	decision_no[1] 	0
scalar ws7_network.node[1].content_store 	decision_ratio[1] 	0
scalar ws7_network.node[2].core_layer 	interests[2] 	106257
scalar ws7_network.node[2].core_layer 	data[2] 	98333
scalar ws7_network.node[2].content_store 	p_hit[2] 	0.074573910424725
scalar ws7_network.node[2].content_store 	hits[2] 	7924
scalar ws7_network.node[2].content_store 	misses[2] 	98333
scalar ws7_network.node[2].content_store 	decision_yes[2] 	992
scalar ws7_network.node[2].content_store 	decision_no[2] 	97341
scalar ws7_network.node[2].content_store 	decision_ratio[2] 	0.010088169790406
scalar ws7_network.node[3].core_layer 	interests[3] 	16931
scalar ws7_network.node[3].core_layer 	data[3] 	3242
scalar ws7_network.node[3].content_store 	p_hit[3] 	0.80851692162306
scalar ws7_network.node[3].content_store 	hits[3] 	13689
scalar ws7_network.node[3].content_store 	misses[3] 	3242
scalar ws7_network.node[3].content_store 	decision_yes[3] 	29
scalar ws7_network.node[3].content_store 	decision_no[3] 	3213
scalar ws7_network.node[3].content_store 	decision_ratio[3] 	0.0089450956199877
scalar ws7_network.node[4].core_layer 	interests[4] 	324123
scalar ws7_network.node[4].core_layer 	repo_load[4] 	108335
scalar ws7_network.node[4].core_layer 	data[4] 	153861
scalar ws7_network.node[4].content_store 	p_hit[4] 	0.19095220024497
scalar ws7_network.node[4].content_store 	hits[4] 	61892
scalar ws7_network.node[4].content_store 	misses[4] 	262231
scalar ws7_network.node[4].content_store 	decision_yes[4] 	2568
scalar ws7_network.node[4].content_store 	decision_no[4] 	259628
scalar ws7_network.node[4].content_store 	decision_ratio[4] 	0.0097941997589589
scalar ws7_network.node[5].core_layer 	interests[5] 	0
scalar ws7_network.node[5].core_layer 	data[5] 	0
scalar ws7_network.node[5].content_store 	p_hit[5] 	-nan
scalar ws7_network.node[5].content_store 	hits[5] 	0
scalar ws7_network.node[5].content_store 	misses[5] 	0
scalar ws7_network.node[5].content_store 	decision_yes[5] 	0
scalar ws7_network.node[5].content_store 	decision_no[5] 	0
scalar ws7_network.node[5].content_store 	decision_ratio[5] 	0
scalar ws7_network.node[6].core_layer 	interests[6] 	187676
scalar ws7_network.node[6].core_layer 	data[6] 	119536
scalar ws7_network.node[6].content_store 	p_hit[6] 	0.36285939598031
scalar ws7_network.node[6].content_store 	hits[6] 	68100
scalar ws7_network.node[6].content_store 	misses[6] 	119576
scalar ws7_network.node[6].content_store 	decision_yes[6] 	1204
scalar ws7_network.node[6].content_store 	decision_no[6] 	118332
scalar ws7_network.node[6].content_store 	decision_ratio[6] 	0.010072279480659
scalar ws7_network.node[7].core_layer 	interests[7] 	0
scalar ws7_network.node[7].core_layer 	data[7] 	0
scalar ws7_network.node[7].content_store 	p_hit[7] 	-nan
scalar ws7_network.node[7].content_store 	hits[7] 	0
scalar ws7_network.node[7].content_store 	misses[7] 	0
scalar ws7_network.node[7].content_store 	decision_yes[7] 	0
scalar ws7_network.node[7].content_store 	decision_no[7] 	0
scalar ws7_network.node[7].content_store 	decision_ratio[7] 	0
scalar ws7_network.node[8].core_layer 	interests[8] 	57850
scalar ws7_network.node[8].core_layer 	data[8] 	42404
scalar ws7_network.node[8].content_store 	p_hit[8] 	0.26698357821953
scalar ws7_network.node[8].content_store 	hits[8] 	15445
scalar ws7_network.node[8].content_store 	misses[8] 	42405
scalar ws7_network.node[8].content_store 	decision_yes[8] 	403
scalar ws7_network.node[8].content_store 	decision_no[8] 	42001
scalar ws7_network.node[8].content_store 	decision_ratio[8] 	0.0095038203943024
scalar ws7_network.node[9].core_layer 	interests[9] 	123680
scalar ws7_network.node[9].core_layer 	data[9] 	113204
scalar ws7_network.node[9].content_store 	p_hit[9] 	0.084710543337646
scalar ws7_network.node[9].content_store 	hits[9] 	10477
scalar ws7_network.node[9].content_store 	misses[9] 	113203
scalar ws7_network.node[9].content_store 	decision_yes[9] 	1115
scalar ws7_network.node[9].content_store 	decision_no[9] 	112089
scalar ws7_network.node[9].content_store 	decision_ratio[9] 	0.0098494752835589
scalar ws7_network.node[10].core_layer 	interests[10] 	0
scalar ws7_network.node[10].core_layer 	data[10] 	0
scalar ws7_network.node[10].content_store 	p_hit[10] 	-nan
scalar ws7_network.node[10].content_store 	hits[10] 	0
scalar ws7_network.node[10].content_store 	misses[10] 	0
scalar ws7_network.node[10].content_store 	decision_yes[10] 	0
scalar ws7_network.node[10].content_store 	decision_no[10] 	0
scalar ws7_network.node[10].content_store 	decision_ratio[10] 	0
scalar ws7_network.node[11].core_layer 	interests[11] 	180529
scalar ws7_network.node[11].core_layer 	data[11] 	119915
scalar ws7_network.node[11].content_store 	p_hit[11] 	0.33550842246952
scalar ws7_network.node[11].content_store 	hits[11] 	60569
scalar ws7_network.node[11].content_store 	misses[11] 	119960
scalar ws7_network.node[11].content_store 	decision_yes[11] 	1262
scalar ws7_network.node[11].content_store 	decision_no[11] 	118653
scalar ws7_network.node[11].content_store 	decision_ratio[11] 	0.010524121252554
scalar ws7_network.node[12].core_layer 	interests[12] 	91097
scalar ws7_network.node[12].core_layer 	repo_load[12] 	87019
scalar ws7_network.node[12].core_layer 	data[12] 	0
scalar ws7_network.node[12].content_store 	p_hit[12] 	0.044765469773977
scalar ws7_network.node[12].content_store 	hits[12] 	4078
scalar ws7_network.node[12].content_store 	misses[12] 	87019
scalar ws7_network.node[12].content_store 	decision_yes[12] 	801
scalar ws7_network.node[12].content_store 	decision_no[12] 	86218
scalar ws7_network.node[12].content_store 	decision_ratio[12] 	0.0092048862892012
scalar ws7_network.node[13].core_layer 	interests[13] 	0
scalar ws7_network.node[13].core_layer 	data[13] 	0
scalar ws7_network.node[13].content_store 	p_hit[13] 	-nan
scalar ws7_network.node[13].content_store 	hits[13] 	0
scalar ws7_network.node[13].content_store 	misses[13] 	0
scalar ws7_network.node[13].content_store 	decision_yes[13] 	0
scalar ws7_network.node[13].content_store 	decision_no[13] 	0
scalar ws7_network.node[13].content_store 	decision_ratio[13] 	0
scalar ws7_network.node[14].core_layer 	interests[14] 	71676
scalar ws7_network.node[14].core_layer 	data[14] 	65348
scalar ws7_network.node[14].content_store 	p_hit[14] 	0.088300128355377
scalar ws7_network.node[14].content_store 	hits[14] 	6329
scalar ws7_network.node[14].content_store 	misses[14] 	65347
scalar ws7_network.node[14].content_store 	decision_yes[14] 	646
scalar ws7_network.node[14].content_store 	decision_no[14] 	64702
scalar ws7_network.node[14].content_store 	decision_ratio[14] 	0.0098855359001041
scalar ws7_network.node[15].core_layer 	interests[15] 	0
scalar ws7_network.node[15].core_layer 	data[15] 	0
scalar ws7_network.node[15].content_store 	p_hit[15] 	-nan
scalar ws7_network.node[15].content_store 	hits[15] 	0
scalar ws7_network.node[15].content_store 	misses[15] 	0
scalar ws7_network.node[15].content_store 	decision_yes[15] 	0
scalar ws7_network.node[15].content_store 	decision_no[15] 	0
scalar ws7_network.node[15].content_store 	decision_ratio[15] 	0
scalar ws7_network.node[16].core_layer 	interests[16] 	0
scalar ws7_network.node[16].core_layer 	data[16] 	0
scalar ws7_network.node[16].content_store 	p_hit[16] 	-nan
scalar ws7_network.node[16].content_store 	hits[16] 	0
scalar ws7_network.node[16].content_store 	misses[16] 	0
scalar ws7_network.node[16].content_store 	decision_yes[16] 	0
scalar ws7_network.node[16].content_store 	decision_no[16] 	0
scalar ws7_network.node[16].content_store 	decision_ratio[16] 	0
scalar ws7_network.node[17].core_layer 	interests[17] 	0
scalar ws7_network.node[17].core_layer 	data[17] 	0
scalar ws7_network.node[17].content_store 	p_hit[17] 	-nan
scalar ws7_network.node[17].content_store 	hits[17] 	0
scalar ws7_network.node[17].content_store 	misses[17] 	0
scalar ws7_network.node[17].content_store 	decision_yes[17] 	0
scalar ws7_network.node[17].content_store 	decision_no[17] 	0
scalar ws7_network.node[17].content_store 	decision_ratio[17] 	0
scalar ws7_network.node[18].core_layer 	interests[18] 	0
scalar ws7_network.node[18].core_layer 	data[18] 	0
scalar ws7_network.node[18].content_store 	p_hit[18] 	-nan
scalar ws7_network.node[18].content_store 	hits[18] 	0
scalar ws7_network.node[18].content_store 	misses[18] 	0
scalar ws7_network.node[18].content_store 	decision_yes[18] 	0
scalar ws7_network.node[18].content_store 	decision_no[18] 	0
scalar ws7_network.node[18].content_store 	decision_ratio[18] 	0
scalar ws7_network.node[19].core_layer 	interests[19] 	0
scalar ws7_network.node[19].core_layer 	data[19] 	0
scalar ws7_network.node[19].content_store 	p_hit[19] 	-nan
scalar ws7_network.node[19].content_store 	hits[19] 	0
scalar ws7_network.node[19].content_store 	misses[19] 	0
scalar ws7_network.node[19].content_store 	decision_yes[19] 	0
scalar ws7_network.node[19].content_store 	decision_no[19] 	0
scalar ws7_network.node[19].content_store 	decision_ratio[19] 	0
scalar ws7_network.node[20].core_layer 	interests[20] 	0
scalar ws7_network.node[20].core_layer 	data[20] 	0
scalar ws7_network.node[20].content_store 	p_hit[20] 	-nan
scalar ws7_network.node[20].content_store 	hits[20] 	0
scalar ws7_network.node[20].content_store 	misses[20] 	0
scalar ws7_network.node[20].content_store 	decision_yes[20] 	0
scalar ws7_network.node[20].content_store 	decision_no[20] 	0
scalar ws7_network.node[20].content_store 	decision_ratio[20] 	0
scalar ws7_network.node[21].core_layer 	interests[21] 	95732
scalar ws7_network.node[21].core_layer 	repo_load[21] 	88880
scalar ws7_network.node[21].core_layer 	data[21] 	0
scalar ws7_network.node[21].content_store 	p_hit[21] 	0.07157481301968
scalar ws7_network.node[21].content_store 	hits[21] 	6852
scalar ws7_network.node[21].content_store 	misses[21] 	88880
scalar ws7_network.node[21].content_store 	decision_yes[21] 	887
scalar ws7_network.node[21].content_store 	decision_no[21] 	87993
scalar ws7_network.node[21].content_store 	decision_ratio[21] 	0.0099797479747975
scalar ws7_network.client[4] 	hdistance[4] 	1.2117947609627
scalar ws7_network.client[4] 	downloads[4] 	180453
scalar ws7_network.client[4] 	avg_time[4] 	0.003426915766
scalar ws7_network.client[4] 	interests_sent[4] 	180476
scalar ws7_network.client[6] 	hdistance[6] 	1.7737615939156
scalar ws7_network.client[6] 	downloads[6] 	179081
scalar ws7_network.client[6] 	avg_time[6] 	0.006509081845
scalar ws7_network.client[6] 	interests_sent[6] 	179121
scalar ws7_network.client[11] 	hdistance[11] 	2.5755738078181
scalar ws7_network.client[11] 	downloads[11] 	180069
scalar ws7_network.client[11] 	avg_time[11] 	0.010683471891
scalar ws7_network.client[11] 	interests_sent[11] 	180114
