version 2
run General-6-20141031-11:24:44-25690
attr D fix0.01
attr F nrr
attr R lru
attr a 1
attr configname General
attr csize 1e3
attr ctlg 1e5
attr datetime 20141031-11:24:44
attr experiment General
attr inifile omnetpp.ini
attr iterationvars "$rep=16, $lambda=100, $a=1, $ctlg=1e5, $F=nrr, $ttl=10, $D=fix0.01, $R=lru, $csize=1e3, $window=60, $variance=0.05, $mytime=1800, $kappa=1, $priceratiovalue=10, $pricebits=0"
attr iterationvars2 "$rep=16, $lambda=100, $a=1, $ctlg=1e5, $F=nrr, $ttl=10, $D=fix0.01, $R=lru, $csize=1e3, $window=60, $variance=0.05, $mytime=1800, $kappa=1, $priceratiovalue=10, $pricebits=0, $repetition=0"
attr kappa 1
attr lambda 100
attr measurement "$rep=16, $lambda=100, $a=1, $ctlg=1e5, $F=nrr, $ttl=10, $D=fix0.01, $R=lru, $csize=1e3, $window=60, $variance=0.05, $mytime=1800, $kappa=1, $priceratiovalue=10, $pricebits=0"
attr mytime 1800
attr network networks.ws${rep}_network
attr pricebits 0
attr priceratiovalue 10
attr processid 25690
attr rep 16
attr repetition 0
attr replication #0
attr resultdir results
attr runnumber 6
attr seedset 16
attr ttl 10
attr variance 0.05
attr window 60

scalar . 	a 	1
scalar . 	csize 	1e3
scalar . 	ctlg 	1e5
scalar . 	kappa 	1
scalar . 	lambda 	100
scalar . 	mytime 	1800
scalar . 	pricebits 	0
scalar . 	priceratiovalue 	10
scalar . 	rep 	16
scalar . 	ttl 	10
scalar . 	variance 	0.05
scalar . 	window 	60
scalar ws16_network.content_distribution 	repo-0 	10
scalar ws16_network.content_distribution 	repo-1 	13
scalar ws16_network.content_distribution 	repo-2 	8
scalar ws16_network.content_distribution 	client-0 	20
scalar ws16_network.content_distribution 	client-1 	18
scalar ws16_network.content_distribution 	client-2 	12
scalar ws16_network.content_distribution 	repo-0_card 	33301
scalar ws16_network.content_distribution 	repo-0_price 	10
scalar ws16_network.content_distribution 	repo-1_card 	33210
scalar ws16_network.content_distribution 	repo-1_price 	1
scalar ws16_network.content_distribution 	repo-2_card 	33489
scalar ws16_network.content_distribution 	repo-2_price 	0
scalar ws16_network.statistics 	repo_popularity[0] 	0.32646379131244
scalar ws16_network.statistics 	repo_popularity[1] 	0.28759362553521
scalar ws16_network.statistics 	repo_popularity[2] 	0.38594258315236
scalar ws16_network.statistics 	stabilization_time 	36120
scalar ws16_network.statistics 	p_hit 	0.2050776879912
scalar ws16_network.statistics 	interests 	61554.5
scalar ws16_network.statistics 	data 	37046
scalar ws16_network.statistics 	hdistance 	1.99654283458
scalar ws16_network.statistics 	avg_time 	0.007830079303
scalar ws16_network.statistics 	downloads 	539071
scalar ws16_network.statistics 	total_cost 	949180
scalar ws16_network.statistics 	total_replicas 	100000
scalar ws16_network.statistics 	inner_hit 	0.51519187639476
scalar ws16_network.statistics 	interests_sent 	539193
scalar ws16_network.node[0].core_layer 	interests[0] 	179053
scalar ws16_network.node[0].core_layer 	data[0] 	168507
scalar ws16_network.node[0].core_layer 	repo_int[0] 	261346
scalar ws16_network.node[0].content_store 	p_hit[0] 	0.058882007003513
scalar ws16_network.node[0].content_store 	hits[0] 	10543
scalar ws16_network.node[0].content_store 	misses[0] 	168510
scalar ws16_network.node[0].content_store 	decision_yes[0] 	1636
scalar ws16_network.node[0].content_store 	decision_no[0] 	166871
scalar ws16_network.node[0].content_store 	decision_ratio[0] 	0.0097087954803065
scalar ws16_network.node[1].core_layer 	interests[1] 	0
scalar ws16_network.node[1].core_layer 	data[1] 	0
scalar ws16_network.node[1].content_store 	p_hit[1] 	-nan
scalar ws16_network.node[1].content_store 	hits[1] 	0
scalar ws16_network.node[1].content_store 	misses[1] 	0
scalar ws16_network.node[1].content_store 	decision_yes[1] 	0
scalar ws16_network.node[1].content_store 	decision_no[1] 	0
scalar ws16_network.node[1].content_store 	decision_ratio[1] 	0
scalar ws16_network.node[2].core_layer 	interests[2] 	34074
scalar ws16_network.node[2].core_layer 	data[2] 	30028
scalar ws16_network.node[2].content_store 	p_hit[2] 	0.11874156248166
scalar ws16_network.node[2].content_store 	hits[2] 	4046
scalar ws16_network.node[2].content_store 	misses[2] 	30028
scalar ws16_network.node[2].content_store 	decision_yes[2] 	323
scalar ws16_network.node[2].content_store 	decision_no[2] 	29705
scalar ws16_network.node[2].content_store 	decision_ratio[2] 	0.010756627147995
scalar ws16_network.node[3].core_layer 	interests[3] 	0
scalar ws16_network.node[3].core_layer 	data[3] 	0
scalar ws16_network.node[3].content_store 	p_hit[3] 	-nan
scalar ws16_network.node[3].content_store 	hits[3] 	0
scalar ws16_network.node[3].content_store 	misses[3] 	0
scalar ws16_network.node[3].content_store 	decision_yes[3] 	0
scalar ws16_network.node[3].content_store 	decision_no[3] 	0
scalar ws16_network.node[3].content_store 	decision_ratio[3] 	0
scalar ws16_network.node[4].core_layer 	interests[4] 	22108
scalar ws16_network.node[4].core_layer 	data[4] 	7435
scalar ws16_network.node[4].content_store 	p_hit[4] 	0.6636963994934
scalar ws16_network.node[4].content_store 	hits[4] 	14673
scalar ws16_network.node[4].content_store 	misses[4] 	7435
scalar ws16_network.node[4].content_store 	decision_yes[4] 	88
scalar ws16_network.node[4].content_store 	decision_no[4] 	7347
scalar ws16_network.node[4].content_store 	decision_ratio[4] 	0.011835911230666
scalar ws16_network.node[5].core_layer 	interests[5] 	7607
scalar ws16_network.node[5].core_layer 	data[5] 	1238
scalar ws16_network.node[5].content_store 	p_hit[5] 	0.83725515972131
scalar ws16_network.node[5].content_store 	hits[5] 	6369
scalar ws16_network.node[5].content_store 	misses[5] 	1238
scalar ws16_network.node[5].content_store 	decision_yes[5] 	14
scalar ws16_network.node[5].content_store 	decision_no[5] 	1224
scalar ws16_network.node[5].content_store 	decision_ratio[5] 	0.011308562197092
scalar ws16_network.node[6].core_layer 	interests[6] 	24266
scalar ws16_network.node[6].core_layer 	data[6] 	8231
scalar ws16_network.node[6].content_store 	p_hit[6] 	0.66080112090992
scalar ws16_network.node[6].content_store 	hits[6] 	16035
scalar ws16_network.node[6].content_store 	misses[6] 	8231
scalar ws16_network.node[6].content_store 	decision_yes[6] 	85
scalar ws16_network.node[6].content_store 	decision_no[6] 	8146
scalar ws16_network.node[6].content_store 	decision_ratio[6] 	0.010326813266918
scalar ws16_network.node[7].core_layer 	interests[7] 	0
scalar ws16_network.node[7].core_layer 	data[7] 	0
scalar ws16_network.node[7].content_store 	p_hit[7] 	-nan
scalar ws16_network.node[7].content_store 	hits[7] 	0
scalar ws16_network.node[7].content_store 	misses[7] 	0
scalar ws16_network.node[7].content_store 	decision_yes[7] 	0
scalar ws16_network.node[7].content_store 	decision_no[7] 	0
scalar ws16_network.node[7].content_store 	decision_ratio[7] 	0
scalar ws16_network.node[8].core_layer 	interests[8] 	90569
scalar ws16_network.node[8].core_layer 	repo_load[8] 	86058
scalar ws16_network.node[8].core_layer 	data[8] 	0
scalar ws16_network.node[8].content_store 	p_hit[8] 	0.049807329218607
scalar ws16_network.node[8].content_store 	hits[8] 	4511
scalar ws16_network.node[8].content_store 	misses[8] 	86058
scalar ws16_network.node[8].content_store 	decision_yes[8] 	845
scalar ws16_network.node[8].content_store 	decision_no[8] 	85213
scalar ws16_network.node[8].content_store 	decision_ratio[8] 	0.0098189593065142
scalar ws16_network.node[9].core_layer 	interests[9] 	46410
scalar ws16_network.node[9].core_layer 	data[9] 	35427
scalar ws16_network.node[9].content_store 	p_hit[9] 	0.23665158371041
scalar ws16_network.node[9].content_store 	hits[9] 	10983
scalar ws16_network.node[9].content_store 	misses[9] 	35427
scalar ws16_network.node[9].content_store 	decision_yes[9] 	344
scalar ws16_network.node[9].content_store 	decision_no[9] 	35082
scalar ws16_network.node[9].content_store 	decision_ratio[9] 	0.0097103822051601
scalar ws16_network.node[10].core_layer 	interests[10] 	89064
scalar ws16_network.node[10].core_layer 	repo_load[10] 	85988
scalar ws16_network.node[10].core_layer 	data[10] 	0
scalar ws16_network.node[10].content_store 	p_hit[10] 	0.034536962184497
scalar ws16_network.node[10].content_store 	hits[10] 	3076
scalar ws16_network.node[10].content_store 	misses[10] 	85988
scalar ws16_network.node[10].content_store 	decision_yes[10] 	881
scalar ws16_network.node[10].content_store 	decision_no[10] 	85107
scalar ws16_network.node[10].content_store 	decision_ratio[10] 	0.010245615667302
scalar ws16_network.node[11].core_layer 	interests[11] 	0
scalar ws16_network.node[11].core_layer 	data[11] 	0
scalar ws16_network.node[11].content_store 	p_hit[11] 	-nan
scalar ws16_network.node[11].content_store 	hits[11] 	0
scalar ws16_network.node[11].content_store 	misses[11] 	0
scalar ws16_network.node[11].content_store 	decision_yes[11] 	0
scalar ws16_network.node[11].content_store 	decision_no[11] 	0
scalar ws16_network.node[11].content_store 	decision_ratio[11] 	0
scalar ws16_network.node[12].core_layer 	interests[12] 	180699
scalar ws16_network.node[12].core_layer 	data[12] 	120311
scalar ws16_network.node[12].content_store 	p_hit[12] 	0.33398635299587
scalar ws16_network.node[12].content_store 	hits[12] 	60351
scalar ws16_network.node[12].content_store 	misses[12] 	120348
scalar ws16_network.node[12].content_store 	decision_yes[12] 	1216
scalar ws16_network.node[12].content_store 	decision_no[12] 	119095
scalar ws16_network.node[12].content_store 	decision_ratio[12] 	0.010107138998097
scalar ws16_network.node[13].core_layer 	interests[13] 	123113
scalar ws16_network.node[13].core_layer 	repo_load[13] 	89300
scalar ws16_network.node[13].core_layer 	data[13] 	29620
scalar ws16_network.node[13].content_store 	p_hit[13] 	0.034058141707212
scalar ws16_network.node[13].content_store 	hits[13] 	4193
scalar ws16_network.node[13].content_store 	misses[13] 	118920
scalar ws16_network.node[13].content_store 	decision_yes[13] 	1137
scalar ws16_network.node[13].content_store 	decision_no[13] 	117783
scalar ws16_network.node[13].content_store 	decision_ratio[13] 	0.009561049445005
scalar ws16_network.node[14].core_layer 	interests[14] 	111815
scalar ws16_network.node[14].core_layer 	data[14] 	100971
scalar ws16_network.node[14].content_store 	p_hit[14] 	0.096963734740419
scalar ws16_network.node[14].content_store 	hits[14] 	10842
scalar ws16_network.node[14].content_store 	misses[14] 	100973
scalar ws16_network.node[14].content_store 	decision_yes[14] 	1034
scalar ws16_network.node[14].content_store 	decision_no[14] 	99936
scalar ws16_network.node[14].content_store 	decision_ratio[14] 	0.010240665544221
scalar ws16_network.node[15].core_layer 	interests[15] 	0
scalar ws16_network.node[15].core_layer 	data[15] 	0
scalar ws16_network.node[15].content_store 	p_hit[15] 	-nan
scalar ws16_network.node[15].content_store 	hits[15] 	0
scalar ws16_network.node[15].content_store 	misses[15] 	0
scalar ws16_network.node[15].content_store 	decision_yes[15] 	0
scalar ws16_network.node[15].content_store 	decision_no[15] 	0
scalar ws16_network.node[15].content_store 	decision_ratio[15] 	0
scalar ws16_network.node[16].core_layer 	interests[16] 	82987
scalar ws16_network.node[16].core_layer 	data[16] 	72840
scalar ws16_network.node[16].content_store 	p_hit[16] 	0.12229626327015
scalar ws16_network.node[16].content_store 	hits[16] 	10149
scalar ws16_network.node[16].content_store 	misses[16] 	72838
scalar ws16_network.node[16].content_store 	decision_yes[16] 	713
scalar ws16_network.node[16].content_store 	decision_no[16] 	72127
scalar ws16_network.node[16].content_store 	decision_ratio[16] 	0.0097885777045579
scalar ws16_network.node[17].core_layer 	interests[17] 	0
scalar ws16_network.node[17].core_layer 	data[17] 	0
scalar ws16_network.node[17].content_store 	p_hit[17] 	-nan
scalar ws16_network.node[17].content_store 	hits[17] 	0
scalar ws16_network.node[17].content_store 	misses[17] 	0
scalar ws16_network.node[17].content_store 	decision_yes[17] 	0
scalar ws16_network.node[17].content_store 	decision_no[17] 	0
scalar ws16_network.node[17].content_store 	decision_ratio[17] 	0
scalar ws16_network.node[18].core_layer 	interests[18] 	180828
scalar ws16_network.node[18].core_layer 	data[18] 	119969
scalar ws16_network.node[18].content_store 	p_hit[18] 	0.33635277722477
scalar ws16_network.node[18].content_store 	hits[18] 	60822
scalar ws16_network.node[18].content_store 	misses[18] 	120006
scalar ws16_network.node[18].content_store 	decision_yes[18] 	1171
scalar ws16_network.node[18].content_store 	decision_no[18] 	118798
scalar ws16_network.node[18].content_store 	decision_ratio[18] 	0.0097608548875126
scalar ws16_network.node[19].core_layer 	interests[19] 	0
scalar ws16_network.node[19].core_layer 	data[19] 	0
scalar ws16_network.node[19].content_store 	p_hit[19] 	-nan
scalar ws16_network.node[19].content_store 	hits[19] 	0
scalar ws16_network.node[19].content_store 	misses[19] 	0
scalar ws16_network.node[19].content_store 	decision_yes[19] 	0
scalar ws16_network.node[19].content_store 	decision_no[19] 	0
scalar ws16_network.node[19].content_store 	decision_ratio[19] 	0
scalar ws16_network.node[20].core_layer 	interests[20] 	181606
scalar ws16_network.node[20].core_layer 	data[20] 	120435
scalar ws16_network.node[20].content_store 	p_hit[20] 	0.3365692763455
scalar ws16_network.node[20].content_store 	hits[20] 	61123
scalar ws16_network.node[20].content_store 	misses[20] 	120483
scalar ws16_network.node[20].content_store 	decision_yes[20] 	1164
scalar ws16_network.node[20].content_store 	decision_no[20] 	119271
scalar ws16_network.node[20].content_store 	decision_ratio[20] 	0.0096649645036742
scalar ws16_network.node[21].core_layer 	interests[21] 	0
scalar ws16_network.node[21].core_layer 	data[21] 	0
scalar ws16_network.node[21].content_store 	p_hit[21] 	-nan
scalar ws16_network.node[21].content_store 	hits[21] 	0
scalar ws16_network.node[21].content_store 	misses[21] 	0
scalar ws16_network.node[21].content_store 	decision_yes[21] 	0
scalar ws16_network.node[21].content_store 	decision_no[21] 	0
scalar ws16_network.node[21].content_store 	decision_ratio[21] 	0
scalar ws16_network.client[12] 	hdistance[12] 	1.7653330359383
scalar ws16_network.client[12] 	downloads[12] 	179335
scalar ws16_network.client[12] 	avg_time[12] 	0.006630766899
scalar ws16_network.client[12] 	interests_sent[12] 	179372
scalar ws16_network.client[18] 	hdistance[18] 	2.2888698525362
scalar ws16_network.client[18] 	downloads[18] 	179773
scalar ws16_network.client[18] 	avg_time[18] 	0.009349923583
scalar ws16_network.client[18] 	interests_sent[18] 	179810
scalar ws16_network.client[20] 	hdistance[20] 	1.9354256152654
scalar ws16_network.client[20] 	downloads[20] 	179963
scalar ws16_network.client[20] 	avg_time[20] 	0.007509547429
scalar ws16_network.client[20] 	interests_sent[20] 	180011
