version 2
run General-2-20141030-18:28:31-30766
attr D fix0.01
attr F nrr
attr R lru
attr a 1
attr configname General
attr csize 1e3
attr ctlg 1e5
attr datetime 20141030-18:28:31
attr experiment General
attr inifile omnetpp.ini
attr iterationvars "$rep=9, $lambda=100, $a=1, $ctlg=1e5, $F=nrr, $ttl=10, $D=fix0.01, $R=lru, $csize=1e3, $window=60, $variance=0.05, $mytime=1800, $kappa=1, $priceratiovalue=10, $pricebits=0"
attr iterationvars2 "$rep=9, $lambda=100, $a=1, $ctlg=1e5, $F=nrr, $ttl=10, $D=fix0.01, $R=lru, $csize=1e3, $window=60, $variance=0.05, $mytime=1800, $kappa=1, $priceratiovalue=10, $pricebits=0, $repetition=0"
attr kappa 1
attr lambda 100
attr measurement "$rep=9, $lambda=100, $a=1, $ctlg=1e5, $F=nrr, $ttl=10, $D=fix0.01, $R=lru, $csize=1e3, $window=60, $variance=0.05, $mytime=1800, $kappa=1, $priceratiovalue=10, $pricebits=0"
attr mytime 1800
attr network networks.ws${rep}_network
attr pricebits 0
attr priceratiovalue 10
attr processid 30766
attr rep 9
attr repetition 0
attr replication #0
attr resultdir results
attr runnumber 2
attr seedset 9
attr ttl 10
attr variance 0.05
attr window 60

scalar . 	a 	1
scalar . 	csize 	1e3
scalar . 	ctlg 	1e5
scalar . 	kappa 	1
scalar . 	lambda 	100
scalar . 	mytime 	1800
scalar . 	pricebits 	0
scalar . 	priceratiovalue 	10
scalar . 	rep 	9
scalar . 	ttl 	10
scalar . 	variance 	0.05
scalar . 	window 	60
scalar ws9_network.content_distribution 	repo-0 	1
scalar ws9_network.content_distribution 	repo-1 	5
scalar ws9_network.content_distribution 	repo-2 	20
scalar ws9_network.content_distribution 	client-0 	3
scalar ws9_network.content_distribution 	client-1 	12
scalar ws9_network.content_distribution 	client-2 	0
scalar ws9_network.content_distribution 	repo-0_card 	33403
scalar ws9_network.content_distribution 	repo-0_price 	0
scalar ws9_network.content_distribution 	repo-1_card 	33170
scalar ws9_network.content_distribution 	repo-1_price 	1
scalar ws9_network.content_distribution 	repo-2_card 	33427
scalar ws9_network.content_distribution 	repo-2_price 	10
scalar ws9_network.statistics 	repo_popularity[0] 	0.31480628060362
scalar ws9_network.statistics 	repo_popularity[1] 	0.34795039549271
scalar ws9_network.statistics 	repo_popularity[2] 	0.33724332390368
scalar ws9_network.statistics 	stabilization_time 	36120
scalar ws9_network.statistics 	p_hit 	0.2053118456278
scalar ws9_network.statistics 	interests 	60020.227272727
scalar ws9_network.statistics 	data 	35481.136363636
scalar ws9_network.statistics 	hdistance 	1.9447714929168
scalar ws9_network.statistics 	avg_time 	0.007494992416
scalar ws9_network.statistics 	downloads 	539739
scalar ws9_network.statistics 	total_cost 	998745
scalar ws9_network.statistics 	total_replicas 	100000
scalar ws9_network.statistics 	inner_hit 	0.50230203857791
scalar ws9_network.statistics 	interests_sent 	539864
scalar ws9_network.node[0].core_layer 	interests[0] 	179777
scalar ws9_network.node[0].core_layer 	data[0] 	120132
scalar ws9_network.node[0].core_layer 	repo_int[0] 	268627
scalar ws9_network.node[0].content_store 	p_hit[0] 	0.3314606429076
scalar ws9_network.node[0].content_store 	hits[0] 	59589
scalar ws9_network.node[0].content_store 	misses[0] 	120188
scalar ws9_network.node[0].content_store 	decision_yes[0] 	1166
scalar ws9_network.node[0].content_store 	decision_no[0] 	118966
scalar ws9_network.node[0].content_store 	decision_ratio[0] 	0.0097059900775813
scalar ws9_network.node[1].core_layer 	interests[1] 	120777
scalar ws9_network.node[1].core_layer 	repo_load[1] 	87622
scalar ws9_network.node[1].core_layer 	data[1] 	28992
scalar ws9_network.node[1].content_store 	p_hit[1] 	0.034468483237703
scalar ws9_network.node[1].content_store 	hits[1] 	4163
scalar ws9_network.node[1].content_store 	misses[1] 	116614
scalar ws9_network.node[1].content_store 	decision_yes[1] 	1183
scalar ws9_network.node[1].content_store 	decision_no[1] 	115431
scalar ws9_network.node[1].content_store 	decision_ratio[1] 	0.010144579553055
scalar ws9_network.node[2].core_layer 	interests[2] 	4646
scalar ws9_network.node[2].core_layer 	data[2] 	1369
scalar ws9_network.node[2].content_store 	p_hit[2] 	0.70533792509686
scalar ws9_network.node[2].content_store 	hits[2] 	3277
scalar ws9_network.node[2].content_store 	misses[2] 	1369
scalar ws9_network.node[2].content_store 	decision_yes[2] 	13
scalar ws9_network.node[2].content_store 	decision_no[2] 	1356
scalar ws9_network.node[2].content_store 	decision_ratio[2] 	0.0094959824689554
scalar ws9_network.node[3].core_layer 	interests[3] 	180346
scalar ws9_network.node[3].core_layer 	data[3] 	119813
scalar ws9_network.node[3].content_store 	p_hit[3] 	0.33546627039136
scalar ws9_network.node[3].content_store 	hits[3] 	60500
scalar ws9_network.node[3].content_store 	misses[3] 	119846
scalar ws9_network.node[3].content_store 	decision_yes[3] 	1218
scalar ws9_network.node[3].content_store 	decision_no[3] 	118595
scalar ws9_network.node[3].content_store 	decision_ratio[3] 	0.010165841770092
scalar ws9_network.node[4].core_layer 	interests[4] 	34280
scalar ws9_network.node[4].core_layer 	data[4] 	31053
scalar ws9_network.node[4].content_store 	p_hit[4] 	0.094136522753792
scalar ws9_network.node[4].content_store 	hits[4] 	3227
scalar ws9_network.node[4].content_store 	misses[4] 	31053
scalar ws9_network.node[4].content_store 	decision_yes[4] 	308
scalar ws9_network.node[4].content_store 	decision_no[4] 	30745
scalar ws9_network.node[4].content_store 	decision_ratio[4] 	0.0099185263903649
scalar ws9_network.node[5].core_layer 	interests[5] 	96554
scalar ws9_network.node[5].core_layer 	repo_load[5] 	90145
scalar ws9_network.node[5].core_layer 	data[5] 	1690
scalar ws9_network.node[5].content_store 	p_hit[5] 	0.048874205108022
scalar ws9_network.node[5].content_store 	hits[5] 	4719
scalar ws9_network.node[5].content_store 	misses[5] 	91835
scalar ws9_network.node[5].content_store 	decision_yes[5] 	997
scalar ws9_network.node[5].content_store 	decision_no[5] 	90838
scalar ws9_network.node[5].content_store 	decision_ratio[5] 	0.010856427288071
scalar ws9_network.node[6].core_layer 	interests[6] 	0
scalar ws9_network.node[6].core_layer 	data[6] 	0
scalar ws9_network.node[6].content_store 	p_hit[6] 	-nan
scalar ws9_network.node[6].content_store 	hits[6] 	0
scalar ws9_network.node[6].content_store 	misses[6] 	0
scalar ws9_network.node[6].content_store 	decision_yes[6] 	0
scalar ws9_network.node[6].content_store 	decision_no[6] 	0
scalar ws9_network.node[6].content_store 	decision_ratio[6] 	0
scalar ws9_network.node[7].core_layer 	interests[7] 	123831
scalar ws9_network.node[7].core_layer 	data[7] 	113702
scalar ws9_network.node[7].content_store 	p_hit[7] 	0.081813116263294
scalar ws9_network.node[7].content_store 	hits[7] 	10131
scalar ws9_network.node[7].content_store 	misses[7] 	113700
scalar ws9_network.node[7].content_store 	decision_yes[7] 	1060
scalar ws9_network.node[7].content_store 	decision_no[7] 	112642
scalar ws9_network.node[7].content_store 	decision_ratio[7] 	0.0093226152574273
scalar ws9_network.node[8].core_layer 	interests[8] 	25281
scalar ws9_network.node[8].core_layer 	data[8] 	10366
scalar ws9_network.node[8].content_store 	p_hit[8] 	0.58988964044144
scalar ws9_network.node[8].content_store 	hits[8] 	14913
scalar ws9_network.node[8].content_store 	misses[8] 	10368
scalar ws9_network.node[8].content_store 	decision_yes[8] 	120
scalar ws9_network.node[8].content_store 	decision_no[8] 	10246
scalar ws9_network.node[8].content_store 	decision_ratio[8] 	0.011576307158017
scalar ws9_network.node[9].core_layer 	interests[9] 	0
scalar ws9_network.node[9].core_layer 	data[9] 	0
scalar ws9_network.node[9].content_store 	p_hit[9] 	-nan
scalar ws9_network.node[9].content_store 	hits[9] 	0
scalar ws9_network.node[9].content_store 	misses[9] 	0
scalar ws9_network.node[9].content_store 	decision_yes[9] 	0
scalar ws9_network.node[9].content_store 	decision_no[9] 	0
scalar ws9_network.node[9].content_store 	decision_ratio[9] 	0
scalar ws9_network.node[10].core_layer 	interests[10] 	0
scalar ws9_network.node[10].core_layer 	data[10] 	0
scalar ws9_network.node[10].content_store 	p_hit[10] 	-nan
scalar ws9_network.node[10].content_store 	hits[10] 	0
scalar ws9_network.node[10].content_store 	misses[10] 	0
scalar ws9_network.node[10].content_store 	decision_yes[10] 	0
scalar ws9_network.node[10].content_store 	decision_no[10] 	0
scalar ws9_network.node[10].content_store 	decision_ratio[10] 	0
scalar ws9_network.node[11].core_layer 	interests[11] 	0
scalar ws9_network.node[11].core_layer 	data[11] 	0
scalar ws9_network.node[11].content_store 	p_hit[11] 	-nan
scalar ws9_network.node[11].content_store 	hits[11] 	0
scalar ws9_network.node[11].content_store 	misses[11] 	0
scalar ws9_network.node[11].content_store 	decision_yes[11] 	0
scalar ws9_network.node[11].content_store 	decision_no[11] 	0
scalar ws9_network.node[11].content_store 	decision_ratio[11] 	0
scalar ws9_network.node[12].core_layer 	interests[12] 	184345
scalar ws9_network.node[12].core_layer 	data[12] 	122085
scalar ws9_network.node[12].content_store 	p_hit[12] 	0.33754102362418
scalar ws9_network.node[12].content_store 	hits[12] 	62224
scalar ws9_network.node[12].content_store 	misses[12] 	122121
scalar ws9_network.node[12].content_store 	decision_yes[12] 	1209
scalar ws9_network.node[12].content_store 	decision_no[12] 	120876
scalar ws9_network.node[12].content_store 	decision_ratio[12] 	0.0099029364786829
scalar ws9_network.node[13].core_layer 	interests[13] 	0
scalar ws9_network.node[13].core_layer 	data[13] 	0
scalar ws9_network.node[13].content_store 	p_hit[13] 	-nan
scalar ws9_network.node[13].content_store 	hits[13] 	0
scalar ws9_network.node[13].content_store 	misses[13] 	0
scalar ws9_network.node[13].content_store 	decision_yes[13] 	0
scalar ws9_network.node[13].content_store 	decision_no[13] 	0
scalar ws9_network.node[13].content_store 	decision_ratio[13] 	0
scalar ws9_network.node[14].core_layer 	interests[14] 	160115
scalar ws9_network.node[14].core_layer 	data[14] 	154862
scalar ws9_network.node[14].content_store 	p_hit[14] 	0.032776441932361
scalar ws9_network.node[14].content_store 	hits[14] 	5248
scalar ws9_network.node[14].content_store 	misses[14] 	154867
scalar ws9_network.node[14].content_store 	decision_yes[14] 	1456
scalar ws9_network.node[14].content_store 	decision_no[14] 	153406
scalar ws9_network.node[14].content_store 	decision_ratio[14] 	0.0094019191279978
scalar ws9_network.node[15].core_layer 	interests[15] 	52414
scalar ws9_network.node[15].core_layer 	data[15] 	40503
scalar ws9_network.node[15].content_store 	p_hit[15] 	0.22724844507193
scalar ws9_network.node[15].content_store 	hits[15] 	11911
scalar ws9_network.node[15].content_store 	misses[15] 	40503
scalar ws9_network.node[15].content_store 	decision_yes[15] 	425
scalar ws9_network.node[15].content_store 	decision_no[15] 	40078
scalar ws9_network.node[15].content_store 	decision_ratio[15] 	0.010493049897538
scalar ws9_network.node[16].core_layer 	interests[16] 	12991
scalar ws9_network.node[16].core_layer 	data[16] 	3454
scalar ws9_network.node[16].content_store 	p_hit[16] 	0.73412362404742
scalar ws9_network.node[16].content_store 	hits[16] 	9537
scalar ws9_network.node[16].content_store 	misses[16] 	3454
scalar ws9_network.node[16].content_store 	decision_yes[16] 	29
scalar ws9_network.node[16].content_store 	decision_no[16] 	3425
scalar ws9_network.node[16].content_store 	decision_ratio[16] 	0.0083960625361899
scalar ws9_network.node[17].core_layer 	interests[17] 	15788
scalar ws9_network.node[17].core_layer 	data[17] 	3458
scalar ws9_network.node[17].content_store 	p_hit[17] 	0.78097289080314
scalar ws9_network.node[17].content_store 	hits[17] 	12330
scalar ws9_network.node[17].content_store 	misses[17] 	3458
scalar ws9_network.node[17].content_store 	decision_yes[17] 	46
scalar ws9_network.node[17].content_store 	decision_no[17] 	3412
scalar ws9_network.node[17].content_store 	decision_ratio[17] 	0.013302486986698
scalar ws9_network.node[18].core_layer 	interests[18] 	0
scalar ws9_network.node[18].core_layer 	data[18] 	0
scalar ws9_network.node[18].content_store 	p_hit[18] 	-nan
scalar ws9_network.node[18].content_store 	hits[18] 	0
scalar ws9_network.node[18].content_store 	misses[18] 	0
scalar ws9_network.node[18].content_store 	decision_yes[18] 	0
scalar ws9_network.node[18].content_store 	decision_no[18] 	0
scalar ws9_network.node[18].content_store 	decision_ratio[18] 	0
scalar ws9_network.node[19].core_layer 	interests[19] 	0
scalar ws9_network.node[19].core_layer 	data[19] 	0
scalar ws9_network.node[19].content_store 	p_hit[19] 	-nan
scalar ws9_network.node[19].content_store 	hits[19] 	0
scalar ws9_network.node[19].content_store 	misses[19] 	0
scalar ws9_network.node[19].content_store 	decision_yes[19] 	0
scalar ws9_network.node[19].content_store 	decision_no[19] 	0
scalar ws9_network.node[19].content_store 	decision_ratio[19] 	0
scalar ws9_network.node[20].core_layer 	interests[20] 	96485
scalar ws9_network.node[20].core_layer 	repo_load[20] 	90860
scalar ws9_network.node[20].core_layer 	data[20] 	0
scalar ws9_network.node[20].content_store 	p_hit[20] 	0.058299217494947
scalar ws9_network.node[20].content_store 	hits[20] 	5625
scalar ws9_network.node[20].content_store 	misses[20] 	90860
scalar ws9_network.node[20].content_store 	decision_yes[20] 	907
scalar ws9_network.node[20].content_store 	decision_no[20] 	89953
scalar ws9_network.node[20].content_store 	decision_ratio[20] 	0.0099823904908651
scalar ws9_network.node[21].core_layer 	interests[21] 	32815
scalar ws9_network.node[21].core_layer 	data[21] 	29106
scalar ws9_network.node[21].content_store 	p_hit[21] 	0.11302757885114
scalar ws9_network.node[21].content_store 	hits[21] 	3709
scalar ws9_network.node[21].content_store 	misses[21] 	29106
scalar ws9_network.node[21].content_store 	decision_yes[21] 	320
scalar ws9_network.node[21].content_store 	decision_no[21] 	28786
scalar ws9_network.node[21].content_store 	decision_ratio[21] 	0.010994296708582
scalar ws9_network.client[0] 	hdistance[0] 	2.5195492411148
scalar ws9_network.client[0] 	downloads[0] 	179342
scalar ws9_network.client[0] 	avg_time[0] 	0.010538775247
scalar ws9_network.client[0] 	interests_sent[0] 	179398
scalar ws9_network.client[3] 	hdistance[3] 	1.5969208692315
scalar ws9_network.client[3] 	downloads[3] 	179791
scalar ws9_network.client[3] 	avg_time[3] 	0.005557813011
scalar ws9_network.client[3] 	interests_sent[3] 	179824
scalar ws9_network.client[12] 	hdistance[12] 	1.7178443684042
scalar ws9_network.client[12] 	downloads[12] 	180606
scalar ws9_network.client[12] 	avg_time[12] 	0.00638838899
scalar ws9_network.client[12] 	interests_sent[12] 	180642
