version 2
run General-6-20141030-18:28:45-22415
attr D fix0.01
attr F nrr
attr R lru
attr a 1
attr configname General
attr csize 1e3
attr ctlg 1e5
attr datetime 20141030-18:28:45
attr experiment General
attr inifile omnetpp.ini
attr iterationvars "$rep=2, $lambda=100, $a=1, $ctlg=1e5, $F=nrr, $ttl=10, $D=fix0.01, $R=lru, $csize=1e3, $window=60, $variance=0.05, $mytime=1800, $kappa=1, $priceratiovalue=10, $pricebits=0"
attr iterationvars2 "$rep=2, $lambda=100, $a=1, $ctlg=1e5, $F=nrr, $ttl=10, $D=fix0.01, $R=lru, $csize=1e3, $window=60, $variance=0.05, $mytime=1800, $kappa=1, $priceratiovalue=10, $pricebits=0, $repetition=0"
attr kappa 1
attr lambda 100
attr measurement "$rep=2, $lambda=100, $a=1, $ctlg=1e5, $F=nrr, $ttl=10, $D=fix0.01, $R=lru, $csize=1e3, $window=60, $variance=0.05, $mytime=1800, $kappa=1, $priceratiovalue=10, $pricebits=0"
attr mytime 1800
attr network networks.ws${rep}_network
attr pricebits 0
attr priceratiovalue 10
attr processid 22415
attr rep 2
attr repetition 0
attr replication #0
attr resultdir results
attr runnumber 6
attr seedset 2
attr ttl 10
attr variance 0.05
attr window 60

scalar . 	a 	1
scalar . 	csize 	1e3
scalar . 	ctlg 	1e5
scalar . 	kappa 	1
scalar . 	lambda 	100
scalar . 	mytime 	1800
scalar . 	pricebits 	0
scalar . 	priceratiovalue 	10
scalar . 	rep 	2
scalar . 	ttl 	10
scalar . 	variance 	0.05
scalar . 	window 	60
scalar ws2_network.content_distribution 	repo-0 	15
scalar ws2_network.content_distribution 	repo-1 	4
scalar ws2_network.content_distribution 	repo-2 	3
scalar ws2_network.content_distribution 	client-0 	7
scalar ws2_network.content_distribution 	client-1 	14
scalar ws2_network.content_distribution 	client-2 	8
scalar ws2_network.content_distribution 	repo-0_card 	33328
scalar ws2_network.content_distribution 	repo-0_price 	1
scalar ws2_network.content_distribution 	repo-1_card 	33051
scalar ws2_network.content_distribution 	repo-1_price 	10
scalar ws2_network.content_distribution 	repo-2_card 	33621
scalar ws2_network.content_distribution 	repo-2_price 	0
scalar ws2_network.statistics 	repo_popularity[0] 	0.40756645377989
scalar ws2_network.statistics 	repo_popularity[1] 	0.31264158041994
scalar ws2_network.statistics 	repo_popularity[2] 	0.27979196580019
scalar ws2_network.statistics 	stabilization_time 	36060
scalar ws2_network.statistics 	p_hit 	0.22717821392044
scalar ws2_network.statistics 	interests 	52487.227272727
scalar ws2_network.statistics 	data 	27927.227272727
scalar ws2_network.statistics 	hdistance 	1.6517513038438
scalar ws2_network.statistics 	avg_time 	0.005890971697
scalar ws2_network.statistics 	downloads 	540215
scalar ws2_network.statistics 	total_cost 	1061754
scalar ws2_network.statistics 	total_replicas 	100000
scalar ws2_network.statistics 	inner_hit 	0.48562516775728
scalar ws2_network.statistics 	interests_sent 	540318
scalar ws2_network.node[0].core_layer 	interests[0] 	0
scalar ws2_network.node[0].core_layer 	data[0] 	0
scalar ws2_network.node[0].core_layer 	repo_int[0] 	277873
scalar ws2_network.node[0].content_store 	p_hit[0] 	-nan
scalar ws2_network.node[0].content_store 	hits[0] 	0
scalar ws2_network.node[0].content_store 	misses[0] 	0
scalar ws2_network.node[0].content_store 	decision_yes[0] 	0
scalar ws2_network.node[0].content_store 	decision_no[0] 	0
scalar ws2_network.node[0].content_store 	decision_ratio[0] 	0
scalar ws2_network.node[1].core_layer 	interests[1] 	122976
scalar ws2_network.node[1].core_layer 	data[1] 	108672
scalar ws2_network.node[1].content_store 	p_hit[1] 	0.11624219359875
scalar ws2_network.node[1].content_store 	hits[1] 	14295
scalar ws2_network.node[1].content_store 	misses[1] 	108681
scalar ws2_network.node[1].content_store 	decision_yes[1] 	1042
scalar ws2_network.node[1].content_store 	decision_no[1] 	107630
scalar ws2_network.node[1].content_store 	decision_ratio[1] 	0.0095884864546525
scalar ws2_network.node[2].core_layer 	interests[2] 	0
scalar ws2_network.node[2].core_layer 	data[2] 	0
scalar ws2_network.node[2].content_store 	p_hit[2] 	-nan
scalar ws2_network.node[2].content_store 	hits[2] 	0
scalar ws2_network.node[2].content_store 	misses[2] 	0
scalar ws2_network.node[2].content_store 	decision_yes[2] 	0
scalar ws2_network.node[2].content_store 	decision_no[2] 	0
scalar ws2_network.node[2].content_store 	decision_ratio[2] 	0
scalar ws2_network.node[3].core_layer 	interests[3] 	131503
scalar ws2_network.node[3].core_layer 	repo_load[3] 	95239
scalar ws2_network.node[3].core_layer 	data[3] 	29865
scalar ws2_network.node[3].content_store 	p_hit[3] 	0.048660486833
scalar ws2_network.node[3].content_store 	hits[3] 	6399
scalar ws2_network.node[3].content_store 	misses[3] 	125104
scalar ws2_network.node[3].content_store 	decision_yes[3] 	1240
scalar ws2_network.node[3].content_store 	decision_no[3] 	123864
scalar ws2_network.node[3].content_store 	decision_ratio[3] 	0.0099117534211536
scalar ws2_network.node[4].core_layer 	interests[4] 	110511
scalar ws2_network.node[4].core_layer 	repo_load[4] 	97680
scalar ws2_network.node[4].core_layer 	data[4] 	2507
scalar ws2_network.node[4].content_store 	p_hit[4] 	0.093420564468695
scalar ws2_network.node[4].content_store 	hits[4] 	10324
scalar ws2_network.node[4].content_store 	misses[4] 	100187
scalar ws2_network.node[4].content_store 	decision_yes[4] 	1007
scalar ws2_network.node[4].content_store 	decision_no[4] 	99180
scalar ws2_network.node[4].content_store 	decision_ratio[4] 	0.010051204248056
scalar ws2_network.node[5].core_layer 	interests[5] 	73629
scalar ws2_network.node[5].core_layer 	data[5] 	45219
scalar ws2_network.node[5].content_store 	p_hit[5] 	0.38581265533961
scalar ws2_network.node[5].content_store 	hits[5] 	28407
scalar ws2_network.node[5].content_store 	misses[5] 	45222
scalar ws2_network.node[5].content_store 	decision_yes[5] 	433
scalar ws2_network.node[5].content_store 	decision_no[5] 	44786
scalar ws2_network.node[5].content_store 	decision_ratio[5] 	0.0095756208673345
scalar ws2_network.node[6].core_layer 	interests[6] 	0
scalar ws2_network.node[6].core_layer 	data[6] 	0
scalar ws2_network.node[6].content_store 	p_hit[6] 	-nan
scalar ws2_network.node[6].content_store 	hits[6] 	0
scalar ws2_network.node[6].content_store 	misses[6] 	0
scalar ws2_network.node[6].content_store 	decision_yes[6] 	0
scalar ws2_network.node[6].content_store 	decision_no[6] 	0
scalar ws2_network.node[6].content_store 	decision_ratio[6] 	0
scalar ws2_network.node[7].core_layer 	interests[7] 	186014
scalar ws2_network.node[7].core_layer 	data[7] 	123558
scalar ws2_network.node[7].content_store 	p_hit[7] 	0.33551775672799
scalar ws2_network.node[7].content_store 	hits[7] 	62411
scalar ws2_network.node[7].content_store 	misses[7] 	123603
scalar ws2_network.node[7].content_store 	decision_yes[7] 	1256
scalar ws2_network.node[7].content_store 	decision_no[7] 	122302
scalar ws2_network.node[7].content_store 	decision_ratio[7] 	0.010165266514511
scalar ws2_network.node[8].core_layer 	interests[8] 	186854
scalar ws2_network.node[8].core_layer 	data[8] 	124024
scalar ws2_network.node[8].content_store 	p_hit[8] 	0.33607522450683
scalar ws2_network.node[8].content_store 	hits[8] 	62797
scalar ws2_network.node[8].content_store 	misses[8] 	124057
scalar ws2_network.node[8].content_store 	decision_yes[8] 	1229
scalar ws2_network.node[8].content_store 	decision_no[8] 	122795
scalar ws2_network.node[8].content_store 	decision_ratio[8] 	0.0099093723795394
scalar ws2_network.node[9].core_layer 	interests[9] 	35492
scalar ws2_network.node[9].core_layer 	data[9] 	29984
scalar ws2_network.node[9].content_store 	p_hit[9] 	0.15518990194974
scalar ws2_network.node[9].content_store 	hits[9] 	5508
scalar ws2_network.node[9].content_store 	misses[9] 	29984
scalar ws2_network.node[9].content_store 	decision_yes[9] 	311
scalar ws2_network.node[9].content_store 	decision_no[9] 	29673
scalar ws2_network.node[9].content_store 	decision_ratio[9] 	0.01037219850587
scalar ws2_network.node[10].core_layer 	interests[10] 	0
scalar ws2_network.node[10].core_layer 	data[10] 	0
scalar ws2_network.node[10].content_store 	p_hit[10] 	-nan
scalar ws2_network.node[10].content_store 	hits[10] 	0
scalar ws2_network.node[10].content_store 	misses[10] 	0
scalar ws2_network.node[10].content_store 	decision_yes[10] 	0
scalar ws2_network.node[10].content_store 	decision_no[10] 	0
scalar ws2_network.node[10].content_store 	decision_ratio[10] 	0
scalar ws2_network.node[11].core_layer 	interests[11] 	0
scalar ws2_network.node[11].core_layer 	data[11] 	0
scalar ws2_network.node[11].content_store 	p_hit[11] 	-nan
scalar ws2_network.node[11].content_store 	hits[11] 	0
scalar ws2_network.node[11].content_store 	misses[11] 	0
scalar ws2_network.node[11].content_store 	decision_yes[11] 	0
scalar ws2_network.node[11].content_store 	decision_no[11] 	0
scalar ws2_network.node[11].content_store 	decision_ratio[11] 	0
scalar ws2_network.node[12].core_layer 	interests[12] 	0
scalar ws2_network.node[12].core_layer 	data[12] 	0
scalar ws2_network.node[12].content_store 	p_hit[12] 	-nan
scalar ws2_network.node[12].content_store 	hits[12] 	0
scalar ws2_network.node[12].content_store 	misses[12] 	0
scalar ws2_network.node[12].content_store 	decision_yes[12] 	0
scalar ws2_network.node[12].content_store 	decision_no[12] 	0
scalar ws2_network.node[12].content_store 	decision_ratio[12] 	0
scalar ws2_network.node[13].core_layer 	interests[13] 	0
scalar ws2_network.node[13].core_layer 	data[13] 	0
scalar ws2_network.node[13].content_store 	p_hit[13] 	-nan
scalar ws2_network.node[13].content_store 	hits[13] 	0
scalar ws2_network.node[13].content_store 	misses[13] 	0
scalar ws2_network.node[13].content_store 	decision_yes[13] 	0
scalar ws2_network.node[13].content_store 	decision_no[13] 	0
scalar ws2_network.node[13].content_store 	decision_ratio[13] 	0
scalar ws2_network.node[14].core_layer 	interests[14] 	183640
scalar ws2_network.node[14].core_layer 	data[14] 	120685
scalar ws2_network.node[14].content_store 	p_hit[14] 	0.34265955129601
scalar ws2_network.node[14].content_store 	hits[14] 	62926
scalar ws2_network.node[14].content_store 	misses[14] 	120714
scalar ws2_network.node[14].content_store 	decision_yes[14] 	1208
scalar ws2_network.node[14].content_store 	decision_no[14] 	119477
scalar ws2_network.node[14].content_store 	decision_ratio[14] 	0.010009528938973
scalar ws2_network.node[15].core_layer 	interests[15] 	89734
scalar ws2_network.node[15].core_layer 	repo_load[15] 	84954
scalar ws2_network.node[15].core_layer 	data[15] 	0
scalar ws2_network.node[15].content_store 	p_hit[15] 	0.053268549267836
scalar ws2_network.node[15].content_store 	hits[15] 	4780
scalar ws2_network.node[15].content_store 	misses[15] 	84954
scalar ws2_network.node[15].content_store 	decision_yes[15] 	879
scalar ws2_network.node[15].content_store 	decision_no[15] 	84075
scalar ws2_network.node[15].content_store 	decision_ratio[15] 	0.010346775902253
scalar ws2_network.node[16].core_layer 	interests[16] 	34366
scalar ws2_network.node[16].core_layer 	data[16] 	29885
scalar ws2_network.node[16].content_store 	p_hit[16] 	0.13036140371297
scalar ws2_network.node[16].content_store 	hits[16] 	4480
scalar ws2_network.node[16].content_store 	misses[16] 	29886
scalar ws2_network.node[16].content_store 	decision_yes[16] 	308
scalar ws2_network.node[16].content_store 	decision_no[16] 	29577
scalar ws2_network.node[16].content_store 	decision_ratio[16] 	0.010306173665719
scalar ws2_network.node[17].core_layer 	interests[17] 	0
scalar ws2_network.node[17].core_layer 	data[17] 	0
scalar ws2_network.node[17].content_store 	p_hit[17] 	-nan
scalar ws2_network.node[17].content_store 	hits[17] 	0
scalar ws2_network.node[17].content_store 	misses[17] 	0
scalar ws2_network.node[17].content_store 	decision_yes[17] 	0
scalar ws2_network.node[17].content_store 	decision_no[17] 	0
scalar ws2_network.node[17].content_store 	decision_ratio[17] 	0
scalar ws2_network.node[18].core_layer 	interests[18] 	0
scalar ws2_network.node[18].core_layer 	data[18] 	0
scalar ws2_network.node[18].content_store 	p_hit[18] 	-nan
scalar ws2_network.node[18].content_store 	hits[18] 	0
scalar ws2_network.node[18].content_store 	misses[18] 	0
scalar ws2_network.node[18].content_store 	decision_yes[18] 	0
scalar ws2_network.node[18].content_store 	decision_no[18] 	0
scalar ws2_network.node[18].content_store 	decision_ratio[18] 	0
scalar ws2_network.node[19].core_layer 	interests[19] 	0
scalar ws2_network.node[19].core_layer 	data[19] 	0
scalar ws2_network.node[19].content_store 	p_hit[19] 	-nan
scalar ws2_network.node[19].content_store 	hits[19] 	0
scalar ws2_network.node[19].content_store 	misses[19] 	0
scalar ws2_network.node[19].content_store 	decision_yes[19] 	0
scalar ws2_network.node[19].content_store 	decision_no[19] 	0
scalar ws2_network.node[19].content_store 	decision_ratio[19] 	0
scalar ws2_network.node[20].core_layer 	interests[20] 	0
scalar ws2_network.node[20].core_layer 	data[20] 	0
scalar ws2_network.node[20].content_store 	p_hit[20] 	-nan
scalar ws2_network.node[20].content_store 	hits[20] 	0
scalar ws2_network.node[20].content_store 	misses[20] 	0
scalar ws2_network.node[20].content_store 	decision_yes[20] 	0
scalar ws2_network.node[20].content_store 	decision_no[20] 	0
scalar ws2_network.node[20].content_store 	decision_ratio[20] 	0
scalar ws2_network.node[21].core_layer 	interests[21] 	0
scalar ws2_network.node[21].core_layer 	data[21] 	0
scalar ws2_network.node[21].content_store 	p_hit[21] 	-nan
scalar ws2_network.node[21].content_store 	hits[21] 	0
scalar ws2_network.node[21].content_store 	misses[21] 	0
scalar ws2_network.node[21].content_store 	decision_yes[21] 	0
scalar ws2_network.node[21].content_store 	decision_no[21] 	0
scalar ws2_network.node[21].content_store 	decision_ratio[21] 	0
scalar ws2_network.client[7] 	hdistance[7] 	1.7707303526798
scalar ws2_network.client[7] 	downloads[7] 	180050
scalar ws2_network.client[7] 	avg_time[7] 	0.006522931561
scalar ws2_network.client[7] 	interests_sent[7] 	180092
scalar ws2_network.client[8] 	hdistance[8] 	1.5920933462981
scalar ws2_network.client[8] 	downloads[8] 	179975
scalar ws2_network.client[8] 	avg_time[8] 	0.005548156375
scalar ws2_network.client[8] 	interests_sent[8] 	180007
scalar ws2_network.client[14] 	hdistance[14] 	1.5924302125534
scalar ws2_network.client[14] 	downloads[14] 	180190
scalar ws2_network.client[14] 	avg_time[14] 	0.005601827157
scalar ws2_network.client[14] 	interests_sent[14] 	180219
