version 2
run General-14-20141030-19:19:41-5069
attr D fix0.01
attr F nrr
attr R lru
attr a 1
attr configname General
attr csize 1e3
attr ctlg 1e5
attr datetime 20141030-19:19:41
attr experiment General
attr inifile omnetpp.ini
attr iterationvars "$rep=8, $lambda=100, $a=1, $ctlg=1e5, $F=nrr, $ttl=10, $D=fix0.01, $R=lru, $csize=1e3, $window=60, $variance=0.05, $mytime=1800, $kappa=1, $priceratiovalue=10, $pricebits=0"
attr iterationvars2 "$rep=8, $lambda=100, $a=1, $ctlg=1e5, $F=nrr, $ttl=10, $D=fix0.01, $R=lru, $csize=1e3, $window=60, $variance=0.05, $mytime=1800, $kappa=1, $priceratiovalue=10, $pricebits=0, $repetition=0"
attr kappa 1
attr lambda 100
attr measurement "$rep=8, $lambda=100, $a=1, $ctlg=1e5, $F=nrr, $ttl=10, $D=fix0.01, $R=lru, $csize=1e3, $window=60, $variance=0.05, $mytime=1800, $kappa=1, $priceratiovalue=10, $pricebits=0"
attr mytime 1800
attr network networks.ws${rep}_network
attr pricebits 0
attr priceratiovalue 10
attr processid 5069
attr rep 8
attr repetition 0
attr replication #0
attr resultdir results
attr runnumber 14
attr seedset 8
attr ttl 10
attr variance 0.05
attr window 60

scalar . 	a 	1
scalar . 	csize 	1e3
scalar . 	ctlg 	1e5
scalar . 	kappa 	1
scalar . 	lambda 	100
scalar . 	mytime 	1800
scalar . 	pricebits 	0
scalar . 	priceratiovalue 	10
scalar . 	rep 	8
scalar . 	ttl 	10
scalar . 	variance 	0.05
scalar . 	window 	60
scalar ws8_network.content_distribution 	repo-0 	4
scalar ws8_network.content_distribution 	repo-1 	15
scalar ws8_network.content_distribution 	repo-2 	12
scalar ws8_network.content_distribution 	client-0 	8
scalar ws8_network.content_distribution 	client-1 	4
scalar ws8_network.content_distribution 	client-2 	20
scalar ws8_network.content_distribution 	repo-0_card 	33476
scalar ws8_network.content_distribution 	repo-0_price 	1
scalar ws8_network.content_distribution 	repo-1_card 	33258
scalar ws8_network.content_distribution 	repo-1_price 	0
scalar ws8_network.content_distribution 	repo-2_card 	33266
scalar ws8_network.content_distribution 	repo-2_price 	10
scalar ws8_network.statistics 	repo_popularity[0] 	0.27308552772926
scalar ws8_network.statistics 	repo_popularity[1] 	0.42673410384757
scalar ws8_network.statistics 	repo_popularity[2] 	0.30018036842319
scalar ws8_network.statistics 	stabilization_time 	36060
scalar ws8_network.statistics 	p_hit 	0.19612934248775
scalar ws8_network.statistics 	interests 	58418.545454545
scalar ws8_network.statistics 	data 	33933
scalar ws8_network.statistics 	hdistance 	1.918495032011
scalar ws8_network.statistics 	avg_time 	0.007181834818
scalar ws8_network.statistics 	downloads 	538576
scalar ws8_network.statistics 	total_cost 	982233
scalar ws8_network.statistics 	total_replicas 	100000
scalar ws8_network.statistics 	inner_hit 	0.46805836130834
scalar ws8_network.statistics 	interests_sent 	538681
scalar ws8_network.node[0].core_layer 	interests[0] 	0
scalar ws8_network.node[0].core_layer 	data[0] 	0
scalar ws8_network.node[0].core_layer 	repo_int[0] 	286491
scalar ws8_network.node[0].content_store 	p_hit[0] 	-nan
scalar ws8_network.node[0].content_store 	hits[0] 	0
scalar ws8_network.node[0].content_store 	misses[0] 	0
scalar ws8_network.node[0].content_store 	decision_yes[0] 	0
scalar ws8_network.node[0].content_store 	decision_no[0] 	0
scalar ws8_network.node[0].content_store 	decision_ratio[0] 	0
scalar ws8_network.node[1].core_layer 	interests[1] 	84388
scalar ws8_network.node[1].core_layer 	data[1] 	69916
scalar ws8_network.node[1].content_store 	p_hit[1] 	0.1714817272598
scalar ws8_network.node[1].content_store 	hits[1] 	14471
scalar ws8_network.node[1].content_store 	misses[1] 	69917
scalar ws8_network.node[1].content_store 	decision_yes[1] 	751
scalar ws8_network.node[1].content_store 	decision_no[1] 	69165
scalar ws8_network.node[1].content_store 	decision_ratio[1] 	0.01074146118199
scalar ws8_network.node[2].core_layer 	interests[2] 	0
scalar ws8_network.node[2].core_layer 	data[2] 	0
scalar ws8_network.node[2].content_store 	p_hit[2] 	-nan
scalar ws8_network.node[2].content_store 	hits[2] 	0
scalar ws8_network.node[2].content_store 	misses[2] 	0
scalar ws8_network.node[2].content_store 	decision_yes[2] 	0
scalar ws8_network.node[2].content_store 	decision_no[2] 	0
scalar ws8_network.node[2].content_store 	decision_ratio[2] 	0
scalar ws8_network.node[3].core_layer 	interests[3] 	0
scalar ws8_network.node[3].core_layer 	data[3] 	0
scalar ws8_network.node[3].content_store 	p_hit[3] 	-nan
scalar ws8_network.node[3].content_store 	hits[3] 	0
scalar ws8_network.node[3].content_store 	misses[3] 	0
scalar ws8_network.node[3].content_store 	decision_yes[3] 	0
scalar ws8_network.node[3].content_store 	decision_no[3] 	0
scalar ws8_network.node[3].content_store 	decision_ratio[3] 	0
scalar ws8_network.node[4].core_layer 	interests[4] 	248956
scalar ws8_network.node[4].core_layer 	repo_load[4] 	105573
scalar ws8_network.node[4].core_layer 	data[4] 	83547
scalar ws8_network.node[4].content_store 	p_hit[4] 	0.24024325583637
scalar ws8_network.node[4].content_store 	hits[4] 	59810
scalar ws8_network.node[4].content_store 	misses[4] 	189146
scalar ws8_network.node[4].content_store 	decision_yes[4] 	1838
scalar ws8_network.node[4].content_store 	decision_no[4] 	187282
scalar ws8_network.node[4].content_store 	decision_ratio[4] 	0.0097186971235195
scalar ws8_network.node[5].core_layer 	interests[5] 	0
scalar ws8_network.node[5].core_layer 	data[5] 	0
scalar ws8_network.node[5].content_store 	p_hit[5] 	-nan
scalar ws8_network.node[5].content_store 	hits[5] 	0
scalar ws8_network.node[5].content_store 	misses[5] 	0
scalar ws8_network.node[5].content_store 	decision_yes[5] 	0
scalar ws8_network.node[5].content_store 	decision_no[5] 	0
scalar ws8_network.node[5].content_store 	decision_ratio[5] 	0
scalar ws8_network.node[6].core_layer 	interests[6] 	85467
scalar ws8_network.node[6].core_layer 	data[6] 	69838
scalar ws8_network.node[6].content_store 	p_hit[6] 	0.18286590145904
scalar ws8_network.node[6].content_store 	hits[6] 	15629
scalar ws8_network.node[6].content_store 	misses[6] 	69838
scalar ws8_network.node[6].content_store 	decision_yes[6] 	691
scalar ws8_network.node[6].content_store 	decision_no[6] 	69147
scalar ws8_network.node[6].content_store 	decision_ratio[6] 	0.009894326870758
scalar ws8_network.node[7].core_layer 	interests[7] 	109242
scalar ws8_network.node[7].core_layer 	data[7] 	101968
scalar ws8_network.node[7].content_store 	p_hit[7] 	0.066558649603632
scalar ws8_network.node[7].content_store 	hits[7] 	7271
scalar ws8_network.node[7].content_store 	misses[7] 	101971
scalar ws8_network.node[7].content_store 	decision_yes[7] 	1013
scalar ws8_network.node[7].content_store 	decision_no[7] 	100955
scalar ws8_network.node[7].content_store 	decision_ratio[7] 	0.0099344892515299
scalar ws8_network.node[8].core_layer 	interests[8] 	252775
scalar ws8_network.node[8].core_layer 	data[8] 	191076
scalar ws8_network.node[8].content_store 	p_hit[8] 	0.24387696568094
scalar ws8_network.node[8].content_store 	hits[8] 	61646
scalar ws8_network.node[8].content_store 	misses[8] 	191129
scalar ws8_network.node[8].content_store 	decision_yes[8] 	1954
scalar ws8_network.node[8].content_store 	decision_no[8] 	189122
scalar ws8_network.node[8].content_store 	decision_ratio[8] 	0.01022629738952
scalar ws8_network.node[9].core_layer 	interests[9] 	98940
scalar ws8_network.node[9].core_layer 	data[9] 	80014
scalar ws8_network.node[9].content_store 	p_hit[9] 	0.19127754194461
scalar ws8_network.node[9].content_store 	hits[9] 	18925
scalar ws8_network.node[9].content_store 	misses[9] 	80015
scalar ws8_network.node[9].content_store 	decision_yes[9] 	805
scalar ws8_network.node[9].content_store 	decision_no[9] 	79209
scalar ws8_network.node[9].content_store 	decision_ratio[9] 	0.01006073937061
scalar ws8_network.node[10].core_layer 	interests[10] 	0
scalar ws8_network.node[10].core_layer 	data[10] 	0
scalar ws8_network.node[10].content_store 	p_hit[10] 	-nan
scalar ws8_network.node[10].content_store 	hits[10] 	0
scalar ws8_network.node[10].content_store 	misses[10] 	0
scalar ws8_network.node[10].content_store 	decision_yes[10] 	0
scalar ws8_network.node[10].content_store 	decision_no[10] 	0
scalar ws8_network.node[10].content_store 	decision_ratio[10] 	0
scalar ws8_network.node[11].core_layer 	interests[11] 	33639
scalar ws8_network.node[11].core_layer 	data[11] 	29800
scalar ws8_network.node[11].content_store 	p_hit[11] 	0.11412348761854
scalar ws8_network.node[11].content_store 	hits[11] 	3839
scalar ws8_network.node[11].content_store 	misses[11] 	29800
scalar ws8_network.node[11].content_store 	decision_yes[11] 	259
scalar ws8_network.node[11].content_store 	decision_no[11] 	29541
scalar ws8_network.node[11].content_store 	decision_ratio[11] 	0.0086912751677852
scalar ws8_network.node[12].core_layer 	interests[12] 	91166
scalar ws8_network.node[12].core_layer 	repo_load[12] 	87666
scalar ws8_network.node[12].core_layer 	data[12] 	0
scalar ws8_network.node[12].content_store 	p_hit[12] 	0.03839150560516
scalar ws8_network.node[12].content_store 	hits[12] 	3500
scalar ws8_network.node[12].content_store 	misses[12] 	87666
scalar ws8_network.node[12].content_store 	decision_yes[12] 	832
scalar ws8_network.node[12].content_store 	decision_no[12] 	86834
scalar ws8_network.node[12].content_store 	decision_ratio[12] 	0.0094905664681861
scalar ws8_network.node[13].core_layer 	interests[13] 	0
scalar ws8_network.node[13].core_layer 	data[13] 	0
scalar ws8_network.node[13].content_store 	p_hit[13] 	-nan
scalar ws8_network.node[13].content_store 	hits[13] 	0
scalar ws8_network.node[13].content_store 	misses[13] 	0
scalar ws8_network.node[13].content_store 	decision_yes[13] 	0
scalar ws8_network.node[13].content_store 	decision_no[13] 	0
scalar ws8_network.node[13].content_store 	decision_ratio[13] 	0
scalar ws8_network.node[14].core_layer 	interests[14] 	0
scalar ws8_network.node[14].core_layer 	data[14] 	0
scalar ws8_network.node[14].content_store 	p_hit[14] 	-nan
scalar ws8_network.node[14].content_store 	hits[14] 	0
scalar ws8_network.node[14].content_store 	misses[14] 	0
scalar ws8_network.node[14].content_store 	decision_yes[14] 	0
scalar ws8_network.node[14].content_store 	decision_no[14] 	0
scalar ws8_network.node[14].content_store 	decision_ratio[14] 	0
scalar ws8_network.node[15].core_layer 	interests[15] 	98872
scalar ws8_network.node[15].core_layer 	repo_load[15] 	93252
scalar ws8_network.node[15].core_layer 	data[15] 	0
scalar ws8_network.node[15].content_store 	p_hit[15] 	0.056841168379319
scalar ws8_network.node[15].content_store 	hits[15] 	5620
scalar ws8_network.node[15].content_store 	misses[15] 	93252
scalar ws8_network.node[15].content_store 	decision_yes[15] 	966
scalar ws8_network.node[15].content_store 	decision_no[15] 	92286
scalar ws8_network.node[15].content_store 	decision_ratio[15] 	0.010359027152233
scalar ws8_network.node[16].core_layer 	interests[16] 	0
scalar ws8_network.node[16].core_layer 	data[16] 	0
scalar ws8_network.node[16].content_store 	p_hit[16] 	-nan
scalar ws8_network.node[16].content_store 	hits[16] 	0
scalar ws8_network.node[16].content_store 	misses[16] 	0
scalar ws8_network.node[16].content_store 	decision_yes[16] 	0
scalar ws8_network.node[16].content_store 	decision_no[16] 	0
scalar ws8_network.node[16].content_store 	decision_ratio[16] 	0
scalar ws8_network.node[17].core_layer 	interests[17] 	0
scalar ws8_network.node[17].core_layer 	data[17] 	0
scalar ws8_network.node[17].content_store 	p_hit[17] 	-nan
scalar ws8_network.node[17].content_store 	hits[17] 	0
scalar ws8_network.node[17].content_store 	misses[17] 	0
scalar ws8_network.node[17].content_store 	decision_yes[17] 	0
scalar ws8_network.node[17].content_store 	decision_no[17] 	0
scalar ws8_network.node[17].content_store 	decision_ratio[17] 	0
scalar ws8_network.node[18].core_layer 	interests[18] 	0
scalar ws8_network.node[18].core_layer 	data[18] 	0
scalar ws8_network.node[18].content_store 	p_hit[18] 	-nan
scalar ws8_network.node[18].content_store 	hits[18] 	0
scalar ws8_network.node[18].content_store 	misses[18] 	0
scalar ws8_network.node[18].content_store 	decision_yes[18] 	0
scalar ws8_network.node[18].content_store 	decision_no[18] 	0
scalar ws8_network.node[18].content_store 	decision_ratio[18] 	0
scalar ws8_network.node[19].core_layer 	interests[19] 	0
scalar ws8_network.node[19].core_layer 	data[19] 	0
scalar ws8_network.node[19].content_store 	p_hit[19] 	-nan
scalar ws8_network.node[19].content_store 	hits[19] 	0
scalar ws8_network.node[19].content_store 	misses[19] 	0
scalar ws8_network.node[19].content_store 	decision_yes[19] 	0
scalar ws8_network.node[19].content_store 	decision_no[19] 	0
scalar ws8_network.node[19].content_store 	decision_ratio[19] 	0
scalar ws8_network.node[20].core_layer 	interests[20] 	181763
scalar ws8_network.node[20].core_layer 	data[20] 	120367
scalar ws8_network.node[20].content_store 	p_hit[20] 	0.33756044959645
scalar ws8_network.node[20].content_store 	hits[20] 	61356
scalar ws8_network.node[20].content_store 	misses[20] 	120407
scalar ws8_network.node[20].content_store 	decision_yes[20] 	1195
scalar ws8_network.node[20].content_store 	decision_no[20] 	119172
scalar ws8_network.node[20].content_store 	decision_ratio[20] 	0.0099279702908605
scalar ws8_network.node[21].core_layer 	interests[21] 	0
scalar ws8_network.node[21].core_layer 	data[21] 	0
scalar ws8_network.node[21].content_store 	p_hit[21] 	-nan
scalar ws8_network.node[21].content_store 	hits[21] 	0
scalar ws8_network.node[21].content_store 	misses[21] 	0
scalar ws8_network.node[21].content_store 	decision_yes[21] 	0
scalar ws8_network.node[21].content_store 	decision_no[21] 	0
scalar ws8_network.node[21].content_store 	decision_ratio[21] 	0
scalar ws8_network.client[4] 	hdistance[4] 	1.624546933021
scalar ws8_network.client[4] 	downloads[4] 	180161
scalar ws8_network.client[4] 	avg_time[4] 	0.005522605179
scalar ws8_network.client[4] 	interests_sent[4] 	180187
scalar ws8_network.client[8] 	hdistance[8] 	1.7920882753691
scalar ws8_network.client[8] 	downloads[8] 	179076
scalar ws8_network.client[8] 	avg_time[8] 	0.006592119657
scalar ws8_network.client[8] 	interests_sent[8] 	179115
scalar ws8_network.client[20] 	hdistance[20] 	2.338849887643
scalar ws8_network.client[20] 	downloads[20] 	179339
scalar ws8_network.client[20] 	avg_time[20] 	0.009430779619
scalar ws8_network.client[20] 	interests_sent[20] 	179379
