version 2
run General-13-20141030-19:11:30-5054
attr D costaware0.01
attr F spr
attr R lru
attr a 1
attr configname General
attr csize 1e3
attr ctlg 1e5
attr datetime 20141030-19:11:30
attr experiment General
attr inifile omnetpp.ini
attr iterationvars "$rep=8, $lambda=100, $a=1, $ctlg=1e5, $F=spr, $ttl=10, $D=costaware0.01, $R=lru, $csize=1e3, $window=60, $variance=0.05, $mytime=1800, $kappa=1, $priceratiovalue=10, $pricebits=0"
attr iterationvars2 "$rep=8, $lambda=100, $a=1, $ctlg=1e5, $F=spr, $ttl=10, $D=costaware0.01, $R=lru, $csize=1e3, $window=60, $variance=0.05, $mytime=1800, $kappa=1, $priceratiovalue=10, $pricebits=0, $repetition=0"
attr kappa 1
attr lambda 100
attr measurement "$rep=8, $lambda=100, $a=1, $ctlg=1e5, $F=spr, $ttl=10, $D=costaware0.01, $R=lru, $csize=1e3, $window=60, $variance=0.05, $mytime=1800, $kappa=1, $priceratiovalue=10, $pricebits=0"
attr mytime 1800
attr network networks.ws${rep}_network
attr pricebits 0
attr priceratiovalue 10
attr processid 5054
attr rep 8
attr repetition 0
attr replication #0
attr resultdir results
attr runnumber 13
attr seedset 8
attr ttl 10
attr variance 0.05
attr window 60

scalar . 	a 	1
scalar . 	csize 	1e3
scalar . 	ctlg 	1e5
scalar . 	kappa 	1
scalar . 	lambda 	100
scalar . 	mytime 	1800
scalar . 	pricebits 	0
scalar . 	priceratiovalue 	10
scalar . 	rep 	8
scalar . 	ttl 	10
scalar . 	variance 	0.05
scalar . 	window 	60
scalar ws8_network.content_distribution 	repo-0 	4
scalar ws8_network.content_distribution 	repo-1 	15
scalar ws8_network.content_distribution 	repo-2 	12
scalar ws8_network.content_distribution 	client-0 	8
scalar ws8_network.content_distribution 	client-1 	4
scalar ws8_network.content_distribution 	client-2 	20
scalar ws8_network.content_distribution 	repo-0_card 	33476
scalar ws8_network.content_distribution 	repo-0_price 	1
scalar ws8_network.content_distribution 	repo-1_card 	33258
scalar ws8_network.content_distribution 	repo-1_price 	0
scalar ws8_network.content_distribution 	repo-2_card 	33266
scalar ws8_network.content_distribution 	repo-2_price 	10
scalar ws8_network.statistics 	repo_popularity[0] 	0.27308552772926
scalar ws8_network.statistics 	repo_popularity[1] 	0.42673410384757
scalar ws8_network.statistics 	repo_popularity[2] 	0.30018036842319
scalar ws8_network.statistics 	stabilization_time 	36060
scalar ws8_network.statistics 	p_hit 	0.069793092318626
scalar ws8_network.statistics 	interests 	73232.045454545
scalar ws8_network.statistics 	data 	48746.363636364
scalar ws8_network.statistics 	hdistance 	2.8101620437081
scalar ws8_network.statistics 	avg_time 	0.010402898996
scalar ws8_network.statistics 	downloads 	532804
scalar ws8_network.statistics 	total_cost 	1031130
scalar ws8_network.statistics 	total_replicas 	100000
scalar ws8_network.statistics 	inner_hit 	0.21799948949332
scalar ws8_network.statistics 	interests_sent 	538681
scalar ws8_network.node[0].core_layer 	interests[0] 	0
scalar ws8_network.node[0].core_layer 	data[0] 	0
scalar ws8_network.node[0].core_layer 	repo_int[0] 	416653
scalar ws8_network.node[0].content_store 	p_hit[0] 	-nan
scalar ws8_network.node[0].content_store 	hits[0] 	0
scalar ws8_network.node[0].content_store 	misses[0] 	0
scalar ws8_network.node[0].content_store 	decision_yes[0] 	0
scalar ws8_network.node[0].content_store 	decision_no[0] 	0
scalar ws8_network.node[0].content_store 	decision_ratio[0] 	0
scalar ws8_network.node[0].content_store 	correction_factor[0] 	0.0027225701061802
scalar ws8_network.node[0].content_store 	kappa[0] 	1
scalar ws8_network.node[1].core_layer 	interests[1] 	96923
scalar ws8_network.node[1].core_layer 	data[1] 	87325
scalar ws8_network.node[1].content_store 	p_hit[1] 	0.099027062719891
scalar ws8_network.node[1].content_store 	hits[1] 	9598
scalar ws8_network.node[1].content_store 	misses[1] 	87325
scalar ws8_network.node[1].content_store 	decision_yes[1] 	899
scalar ws8_network.node[1].content_store 	decision_no[1] 	86426
scalar ws8_network.node[1].content_store 	decision_ratio[1] 	0.010294875465216
scalar ws8_network.node[1].content_store 	correction_factor[1] 	0.0027225701061802
scalar ws8_network.node[1].content_store 	kappa[1] 	1
scalar ws8_network.node[2].core_layer 	interests[2] 	0
scalar ws8_network.node[2].core_layer 	data[2] 	0
scalar ws8_network.node[2].content_store 	p_hit[2] 	-nan
scalar ws8_network.node[2].content_store 	hits[2] 	0
scalar ws8_network.node[2].content_store 	misses[2] 	0
scalar ws8_network.node[2].content_store 	decision_yes[2] 	0
scalar ws8_network.node[2].content_store 	decision_no[2] 	0
scalar ws8_network.node[2].content_store 	decision_ratio[2] 	0
scalar ws8_network.node[2].content_store 	correction_factor[2] 	0.0027225701061802
scalar ws8_network.node[2].content_store 	kappa[2] 	1
scalar ws8_network.node[3].core_layer 	interests[3] 	0
scalar ws8_network.node[3].core_layer 	data[3] 	0
scalar ws8_network.node[3].content_store 	p_hit[3] 	-nan
scalar ws8_network.node[3].content_store 	hits[3] 	0
scalar ws8_network.node[3].content_store 	misses[3] 	0
scalar ws8_network.node[3].content_store 	decision_yes[3] 	0
scalar ws8_network.node[3].content_store 	decision_no[3] 	0
scalar ws8_network.node[3].content_store 	decision_ratio[3] 	0
scalar ws8_network.node[3].content_store 	correction_factor[3] 	0.0027225701061802
scalar ws8_network.node[3].content_store 	kappa[3] 	1
scalar ws8_network.node[4].core_layer 	interests[4] 	255501
scalar ws8_network.node[4].core_layer 	repo_load[4] 	102590
scalar ws8_network.node[4].core_layer 	data[4] 	126519
scalar ws8_network.node[4].content_store 	p_hit[4] 	0.09396049330531
scalar ws8_network.node[4].content_store 	hits[4] 	24007
scalar ws8_network.node[4].content_store 	misses[4] 	231494
scalar ws8_network.node[4].content_store 	decision_yes[4] 	1175
scalar ws8_network.node[4].content_store 	decision_no[4] 	227934
scalar ws8_network.node[4].content_store 	decision_ratio[4] 	0.0051285632602822
scalar ws8_network.node[4].content_store 	correction_factor[4] 	0.0027225701061802
scalar ws8_network.node[4].content_store 	kappa[4] 	1
scalar ws8_network.node[5].core_layer 	interests[5] 	0
scalar ws8_network.node[5].core_layer 	data[5] 	0
scalar ws8_network.node[5].content_store 	p_hit[5] 	-nan
scalar ws8_network.node[5].content_store 	hits[5] 	0
scalar ws8_network.node[5].content_store 	misses[5] 	0
scalar ws8_network.node[5].content_store 	decision_yes[5] 	0
scalar ws8_network.node[5].content_store 	decision_no[5] 	0
scalar ws8_network.node[5].content_store 	decision_ratio[5] 	0
scalar ws8_network.node[5].content_store 	correction_factor[5] 	0.0027225701061802
scalar ws8_network.node[5].content_store 	kappa[5] 	1
scalar ws8_network.node[6].core_layer 	interests[6] 	119292
scalar ws8_network.node[6].core_layer 	data[6] 	112569
scalar ws8_network.node[6].content_store 	p_hit[6] 	0.056357509304899
scalar ws8_network.node[6].content_store 	hits[6] 	6723
scalar ws8_network.node[6].content_store 	misses[6] 	112569
scalar ws8_network.node[6].content_store 	decision_yes[6] 	92
scalar ws8_network.node[6].content_store 	decision_no[6] 	112477
scalar ws8_network.node[6].content_store 	decision_ratio[6] 	0.00081727651484867
scalar ws8_network.node[6].content_store 	correction_factor[6] 	0.0027225701061802
scalar ws8_network.node[6].content_store 	kappa[6] 	1
scalar ws8_network.node[7].core_layer 	interests[7] 	139291
scalar ws8_network.node[7].core_layer 	data[7] 	115274
scalar ws8_network.node[7].content_store 	p_hit[7] 	0.17181296709766
scalar ws8_network.node[7].content_store 	hits[7] 	23932
scalar ws8_network.node[7].content_store 	misses[7] 	115359
scalar ws8_network.node[7].content_store 	decision_yes[7] 	1821
scalar ws8_network.node[7].content_store 	decision_no[7] 	113453
scalar ws8_network.node[7].content_store 	decision_ratio[7] 	0.015797144195569
scalar ws8_network.node[7].content_store 	correction_factor[7] 	0.0027225701061802
scalar ws8_network.node[7].content_store 	kappa[7] 	1
scalar ws8_network.node[8].core_layer 	interests[8] 	328102
scalar ws8_network.node[8].core_layer 	data[8] 	309354
scalar ws8_network.node[8].content_store 	p_hit[8] 	0.043218267489988
scalar ws8_network.node[8].content_store 	hits[8] 	14180
scalar ws8_network.node[8].content_store 	misses[8] 	313922
scalar ws8_network.node[8].content_store 	decision_yes[8] 	899
scalar ws8_network.node[8].content_store 	decision_no[8] 	308455
scalar ws8_network.node[8].content_store 	decision_ratio[8] 	0.0029060558454069
scalar ws8_network.node[8].content_store 	correction_factor[8] 	0.0027225701061802
scalar ws8_network.node[8].content_store 	kappa[8] 	1
scalar ws8_network.node[9].core_layer 	interests[9] 	117840
scalar ws8_network.node[9].core_layer 	data[9] 	114296
scalar ws8_network.node[9].content_store 	p_hit[9] 	0.030057705363204
scalar ws8_network.node[9].content_store 	hits[9] 	3542
scalar ws8_network.node[9].content_store 	misses[9] 	114298
scalar ws8_network.node[9].content_store 	decision_yes[9] 	806
scalar ws8_network.node[9].content_store 	decision_no[9] 	113490
scalar ws8_network.node[9].content_store 	decision_ratio[9] 	0.0070518653321201
scalar ws8_network.node[9].content_store 	correction_factor[9] 	0.0027225701061802
scalar ws8_network.node[9].content_store 	kappa[9] 	1
scalar ws8_network.node[10].core_layer 	interests[10] 	0
scalar ws8_network.node[10].core_layer 	data[10] 	0
scalar ws8_network.node[10].content_store 	p_hit[10] 	-nan
scalar ws8_network.node[10].content_store 	hits[10] 	0
scalar ws8_network.node[10].content_store 	misses[10] 	0
scalar ws8_network.node[10].content_store 	decision_yes[10] 	0
scalar ws8_network.node[10].content_store 	decision_no[10] 	0
scalar ws8_network.node[10].content_store 	decision_ratio[10] 	0
scalar ws8_network.node[10].content_store 	correction_factor[10] 	0.0027225701061802
scalar ws8_network.node[10].content_store 	kappa[10] 	1
scalar ws8_network.node[11].core_layer 	interests[11] 	39864
scalar ws8_network.node[11].core_layer 	data[11] 	35729
scalar ws8_network.node[11].content_store 	p_hit[11] 	0.10372767409191
scalar ws8_network.node[11].content_store 	hits[11] 	4135
scalar ws8_network.node[11].content_store 	misses[11] 	35729
scalar ws8_network.node[11].content_store 	decision_yes[11] 	875
scalar ws8_network.node[11].content_store 	decision_no[11] 	34854
scalar ws8_network.node[11].content_store 	decision_ratio[11] 	0.024489910157015
scalar ws8_network.node[11].content_store 	correction_factor[11] 	0.0027225701061802
scalar ws8_network.node[11].content_store 	kappa[11] 	1
scalar ws8_network.node[12].core_layer 	interests[12] 	113704
scalar ws8_network.node[12].core_layer 	repo_load[12] 	92854
scalar ws8_network.node[12].core_layer 	data[12] 	0
scalar ws8_network.node[12].content_store 	p_hit[12] 	0.18337085766552
scalar ws8_network.node[12].content_store 	hits[12] 	20850
scalar ws8_network.node[12].content_store 	misses[12] 	92854
scalar ws8_network.node[12].content_store 	decision_yes[12] 	2524
scalar ws8_network.node[12].content_store 	decision_no[12] 	90330
scalar ws8_network.node[12].content_store 	decision_ratio[12] 	0.02718245848321
scalar ws8_network.node[12].content_store 	correction_factor[12] 	0.0027225701061802
scalar ws8_network.node[12].content_store 	kappa[12] 	1
scalar ws8_network.node[13].core_layer 	interests[13] 	0
scalar ws8_network.node[13].core_layer 	data[13] 	0
scalar ws8_network.node[13].content_store 	p_hit[13] 	-nan
scalar ws8_network.node[13].content_store 	hits[13] 	0
scalar ws8_network.node[13].content_store 	misses[13] 	0
scalar ws8_network.node[13].content_store 	decision_yes[13] 	0
scalar ws8_network.node[13].content_store 	decision_no[13] 	0
scalar ws8_network.node[13].content_store 	decision_ratio[13] 	0
scalar ws8_network.node[13].content_store 	correction_factor[13] 	0.0027225701061802
scalar ws8_network.node[13].content_store 	kappa[13] 	1
scalar ws8_network.node[14].core_layer 	interests[14] 	0
scalar ws8_network.node[14].core_layer 	data[14] 	0
scalar ws8_network.node[14].content_store 	p_hit[14] 	-nan
scalar ws8_network.node[14].content_store 	hits[14] 	0
scalar ws8_network.node[14].content_store 	misses[14] 	0
scalar ws8_network.node[14].content_store 	decision_yes[14] 	0
scalar ws8_network.node[14].content_store 	decision_no[14] 	0
scalar ws8_network.node[14].content_store 	decision_ratio[14] 	0
scalar ws8_network.node[14].content_store 	correction_factor[14] 	0.0027225701061802
scalar ws8_network.node[14].content_store 	kappa[14] 	1
scalar ws8_network.node[15].core_layer 	interests[15] 	221209
scalar ws8_network.node[15].core_layer 	repo_load[15] 	221209
scalar ws8_network.node[15].core_layer 	data[15] 	0
scalar ws8_network.node[15].content_store 	p_hit[15] 	0
scalar ws8_network.node[15].content_store 	hits[15] 	0
scalar ws8_network.node[15].content_store 	misses[15] 	221209
scalar ws8_network.node[15].content_store 	decision_yes[15] 	0
scalar ws8_network.node[15].content_store 	decision_no[15] 	221209
scalar ws8_network.node[15].content_store 	decision_ratio[15] 	0
scalar ws8_network.node[15].content_store 	correction_factor[15] 	0.0027225701061802
scalar ws8_network.node[15].content_store 	kappa[15] 	1
scalar ws8_network.node[16].core_layer 	interests[16] 	0
scalar ws8_network.node[16].core_layer 	data[16] 	0
scalar ws8_network.node[16].content_store 	p_hit[16] 	-nan
scalar ws8_network.node[16].content_store 	hits[16] 	0
scalar ws8_network.node[16].content_store 	misses[16] 	0
scalar ws8_network.node[16].content_store 	decision_yes[16] 	0
scalar ws8_network.node[16].content_store 	decision_no[16] 	0
scalar ws8_network.node[16].content_store 	decision_ratio[16] 	0
scalar ws8_network.node[16].content_store 	correction_factor[16] 	0.0027225701061802
scalar ws8_network.node[16].content_store 	kappa[16] 	1
scalar ws8_network.node[17].core_layer 	interests[17] 	0
scalar ws8_network.node[17].core_layer 	data[17] 	0
scalar ws8_network.node[17].content_store 	p_hit[17] 	-nan
scalar ws8_network.node[17].content_store 	hits[17] 	0
scalar ws8_network.node[17].content_store 	misses[17] 	0
scalar ws8_network.node[17].content_store 	decision_yes[17] 	0
scalar ws8_network.node[17].content_store 	decision_no[17] 	0
scalar ws8_network.node[17].content_store 	decision_ratio[17] 	0
scalar ws8_network.node[17].content_store 	correction_factor[17] 	0.0027225701061802
scalar ws8_network.node[17].content_store 	kappa[17] 	1
scalar ws8_network.node[18].core_layer 	interests[18] 	0
scalar ws8_network.node[18].core_layer 	data[18] 	0
scalar ws8_network.node[18].content_store 	p_hit[18] 	-nan
scalar ws8_network.node[18].content_store 	hits[18] 	0
scalar ws8_network.node[18].content_store 	misses[18] 	0
scalar ws8_network.node[18].content_store 	decision_yes[18] 	0
scalar ws8_network.node[18].content_store 	decision_no[18] 	0
scalar ws8_network.node[18].content_store 	decision_ratio[18] 	0
scalar ws8_network.node[18].content_store 	correction_factor[18] 	0.0027225701061802
scalar ws8_network.node[18].content_store 	kappa[18] 	1
scalar ws8_network.node[19].core_layer 	interests[19] 	0
scalar ws8_network.node[19].core_layer 	data[19] 	0
scalar ws8_network.node[19].content_store 	p_hit[19] 	-nan
scalar ws8_network.node[19].content_store 	hits[19] 	0
scalar ws8_network.node[19].content_store 	misses[19] 	0
scalar ws8_network.node[19].content_store 	decision_yes[19] 	0
scalar ws8_network.node[19].content_store 	decision_no[19] 	0
scalar ws8_network.node[19].content_store 	decision_ratio[19] 	0
scalar ws8_network.node[19].content_store 	correction_factor[19] 	0.0027225701061802
scalar ws8_network.node[19].content_store 	kappa[19] 	1
scalar ws8_network.node[20].core_layer 	interests[20] 	179379
scalar ws8_network.node[20].core_layer 	data[20] 	171354
scalar ws8_network.node[20].content_store 	p_hit[20] 	0.030533117031537
scalar ws8_network.node[20].content_store 	hits[20] 	5477
scalar ws8_network.node[20].content_store 	misses[20] 	173902
scalar ws8_network.node[20].content_store 	decision_yes[20] 	946
scalar ws8_network.node[20].content_store 	decision_no[20] 	170408
scalar ws8_network.node[20].content_store 	decision_ratio[20] 	0.0055207348529944
scalar ws8_network.node[20].content_store 	correction_factor[20] 	0.0027225701061802
scalar ws8_network.node[20].content_store 	kappa[20] 	1
scalar ws8_network.node[21].core_layer 	interests[21] 	0
scalar ws8_network.node[21].core_layer 	data[21] 	0
scalar ws8_network.node[21].content_store 	p_hit[21] 	-nan
scalar ws8_network.node[21].content_store 	hits[21] 	0
scalar ws8_network.node[21].content_store 	misses[21] 	0
scalar ws8_network.node[21].content_store 	decision_yes[21] 	0
scalar ws8_network.node[21].content_store 	decision_no[21] 	0
scalar ws8_network.node[21].content_store 	decision_ratio[21] 	0
scalar ws8_network.node[21].content_store 	correction_factor[21] 	0.0027225701061802
scalar ws8_network.node[21].content_store 	kappa[21] 	1
scalar ws8_network.client[4] 	hdistance[4] 	2.5864500961744
scalar ws8_network.client[4] 	downloads[4] 	177802
scalar ws8_network.client[4] 	avg_time[4] 	0.009161283545
scalar ws8_network.client[4] 	interests_sent[4] 	180187
scalar ws8_network.client[8] 	hdistance[8] 	2.328555152073
scalar ws8_network.client[8] 	downloads[8] 	178171
scalar ws8_network.client[8] 	avg_time[8] 	0.008029030427
scalar ws8_network.client[8] 	interests_sent[8] 	179115
scalar ws8_network.client[20] 	hdistance[20] 	3.5154808828769
scalar ws8_network.client[20] 	downloads[20] 	176831
scalar ws8_network.client[20] 	avg_time[20] 	0.014018383018
scalar ws8_network.client[20] 	interests_sent[20] 	179379
