version 2
run General-1-20141030-18:28:31-30765
attr D costaware0.01
attr F spr
attr R lru
attr a 1
attr configname General
attr csize 1e3
attr ctlg 1e5
attr datetime 20141030-18:28:31
attr experiment General
attr inifile omnetpp.ini
attr iterationvars "$rep=9, $lambda=100, $a=1, $ctlg=1e5, $F=spr, $ttl=10, $D=costaware0.01, $R=lru, $csize=1e3, $window=60, $variance=0.05, $mytime=1800, $kappa=1, $priceratiovalue=10, $pricebits=0"
attr iterationvars2 "$rep=9, $lambda=100, $a=1, $ctlg=1e5, $F=spr, $ttl=10, $D=costaware0.01, $R=lru, $csize=1e3, $window=60, $variance=0.05, $mytime=1800, $kappa=1, $priceratiovalue=10, $pricebits=0, $repetition=0"
attr kappa 1
attr lambda 100
attr measurement "$rep=9, $lambda=100, $a=1, $ctlg=1e5, $F=spr, $ttl=10, $D=costaware0.01, $R=lru, $csize=1e3, $window=60, $variance=0.05, $mytime=1800, $kappa=1, $priceratiovalue=10, $pricebits=0"
attr mytime 1800
attr network networks.ws${rep}_network
attr pricebits 0
attr priceratiovalue 10
attr processid 30765
attr rep 9
attr repetition 0
attr replication #0
attr resultdir results
attr runnumber 1
attr seedset 9
attr ttl 10
attr variance 0.05
attr window 60

scalar . 	a 	1
scalar . 	csize 	1e3
scalar . 	ctlg 	1e5
scalar . 	kappa 	1
scalar . 	lambda 	100
scalar . 	mytime 	1800
scalar . 	pricebits 	0
scalar . 	priceratiovalue 	10
scalar . 	rep 	9
scalar . 	ttl 	10
scalar . 	variance 	0.05
scalar . 	window 	60
scalar ws9_network.content_distribution 	repo-0 	1
scalar ws9_network.content_distribution 	repo-1 	5
scalar ws9_network.content_distribution 	repo-2 	20
scalar ws9_network.content_distribution 	client-0 	3
scalar ws9_network.content_distribution 	client-1 	12
scalar ws9_network.content_distribution 	client-2 	0
scalar ws9_network.content_distribution 	repo-0_card 	33403
scalar ws9_network.content_distribution 	repo-0_price 	0
scalar ws9_network.content_distribution 	repo-1_card 	33170
scalar ws9_network.content_distribution 	repo-1_price 	1
scalar ws9_network.content_distribution 	repo-2_card 	33427
scalar ws9_network.content_distribution 	repo-2_price 	10
scalar ws9_network.statistics 	repo_popularity[0] 	0.31480628060362
scalar ws9_network.statistics 	repo_popularity[1] 	0.34795039549271
scalar ws9_network.statistics 	repo_popularity[2] 	0.33724332390368
scalar ws9_network.statistics 	stabilization_time 	36060
scalar ws9_network.statistics 	p_hit 	0.10798889231719
scalar ws9_network.statistics 	interests 	73659.090909091
scalar ws9_network.statistics 	data 	49119.227272727
scalar ws9_network.statistics 	hdistance 	2.6944025828975
scalar ws9_network.statistics 	avg_time 	0.010416247799
scalar ws9_network.statistics 	downloads 	535677
scalar ws9_network.statistics 	total_cost 	1070474
scalar ws9_network.statistics 	total_replicas 	100000
scalar ws9_network.statistics 	inner_hit 	0.32757053224238
scalar ws9_network.statistics 	interests_sent 	539882
scalar ws9_network.node[0].core_layer 	interests[0] 	179530
scalar ws9_network.node[0].core_layer 	data[0] 	168556
scalar ws9_network.node[0].core_layer 	repo_int[0] 	360205
scalar ws9_network.node[0].content_store 	p_hit[0] 	0.048805213613324
scalar ws9_network.node[0].content_store 	hits[0] 	8762
scalar ws9_network.node[0].content_store 	misses[0] 	170768
scalar ws9_network.node[0].content_store 	decision_yes[0] 	904
scalar ws9_network.node[0].content_store 	decision_no[0] 	167652
scalar ws9_network.node[0].content_store 	decision_ratio[0] 	0.0053632027338095
scalar ws9_network.node[0].content_store 	correction_factor[0] 	0.0027225701061802
scalar ws9_network.node[0].content_store 	kappa[0] 	1
scalar ws9_network.node[1].core_layer 	interests[1] 	211809
scalar ws9_network.node[1].core_layer 	repo_load[1] 	167987
scalar ws9_network.node[1].core_layer 	data[1] 	39566
scalar ws9_network.node[1].content_store 	p_hit[1] 	0.020098296106398
scalar ws9_network.node[1].content_store 	hits[1] 	4257
scalar ws9_network.node[1].content_store 	misses[1] 	207552
scalar ws9_network.node[1].content_store 	decision_yes[1] 	826
scalar ws9_network.node[1].content_store 	decision_no[1] 	206727
scalar ws9_network.node[1].content_store 	decision_ratio[1] 	0.0039797063882478
scalar ws9_network.node[1].content_store 	correction_factor[1] 	0.0027225701061802
scalar ws9_network.node[1].content_store 	kappa[1] 	1
scalar ws9_network.node[2].core_layer 	interests[2] 	0
scalar ws9_network.node[2].core_layer 	data[2] 	0
scalar ws9_network.node[2].content_store 	p_hit[2] 	-nan
scalar ws9_network.node[2].content_store 	hits[2] 	0
scalar ws9_network.node[2].content_store 	misses[2] 	0
scalar ws9_network.node[2].content_store 	decision_yes[2] 	0
scalar ws9_network.node[2].content_store 	decision_no[2] 	0
scalar ws9_network.node[2].content_store 	decision_ratio[2] 	0
scalar ws9_network.node[2].content_store 	correction_factor[2] 	0.0027225701061802
scalar ws9_network.node[2].content_store 	kappa[2] 	1
scalar ws9_network.node[3].core_layer 	interests[3] 	179766
scalar ws9_network.node[3].core_layer 	data[3] 	153239
scalar ws9_network.node[3].content_store 	p_hit[3] 	0.14398718333834
scalar ws9_network.node[3].content_store 	hits[3] 	25884
scalar ws9_network.node[3].content_store 	misses[3] 	153882
scalar ws9_network.node[3].content_store 	decision_yes[3] 	1026
scalar ws9_network.node[3].content_store 	decision_no[3] 	152213
scalar ws9_network.node[3].content_store 	decision_ratio[3] 	0.0066954234887985
scalar ws9_network.node[3].content_store 	correction_factor[3] 	0.0027225701061802
scalar ws9_network.node[3].content_store 	kappa[3] 	1
scalar ws9_network.node[4].core_layer 	interests[4] 	46966
scalar ws9_network.node[4].core_layer 	data[4] 	41110
scalar ws9_network.node[4].content_store 	p_hit[4] 	0.12466465102415
scalar ws9_network.node[4].content_store 	hits[4] 	5855
scalar ws9_network.node[4].content_store 	misses[4] 	41111
scalar ws9_network.node[4].content_store 	decision_yes[4] 	102
scalar ws9_network.node[4].content_store 	decision_no[4] 	41008
scalar ws9_network.node[4].content_store 	decision_ratio[4] 	0.0024811481391389
scalar ws9_network.node[4].content_store 	correction_factor[4] 	0.0027225701061802
scalar ws9_network.node[4].content_store 	kappa[4] 	1
scalar ws9_network.node[5].core_layer 	interests[5] 	119067
scalar ws9_network.node[5].core_layer 	repo_load[5] 	94634
scalar ws9_network.node[5].core_layer 	data[5] 	0
scalar ws9_network.node[5].content_store 	p_hit[5] 	0.20520379282253
scalar ws9_network.node[5].content_store 	hits[5] 	24433
scalar ws9_network.node[5].content_store 	misses[5] 	94634
scalar ws9_network.node[5].content_store 	decision_yes[5] 	248
scalar ws9_network.node[5].content_store 	decision_no[5] 	94386
scalar ws9_network.node[5].content_store 	decision_ratio[5] 	0.0026206226092102
scalar ws9_network.node[5].content_store 	correction_factor[5] 	0.0027225701061802
scalar ws9_network.node[5].content_store 	kappa[5] 	1
scalar ws9_network.node[6].core_layer 	interests[6] 	0
scalar ws9_network.node[6].core_layer 	data[6] 	0
scalar ws9_network.node[6].content_store 	p_hit[6] 	-nan
scalar ws9_network.node[6].content_store 	hits[6] 	0
scalar ws9_network.node[6].content_store 	misses[6] 	0
scalar ws9_network.node[6].content_store 	decision_yes[6] 	0
scalar ws9_network.node[6].content_store 	decision_no[6] 	0
scalar ws9_network.node[6].content_store 	decision_ratio[6] 	0
scalar ws9_network.node[6].content_store 	correction_factor[6] 	0.0027225701061802
scalar ws9_network.node[6].content_store 	kappa[6] 	1
scalar ws9_network.node[7].core_layer 	interests[7] 	168556
scalar ws9_network.node[7].core_layer 	data[7] 	164790
scalar ws9_network.node[7].content_store 	p_hit[7] 	0.022348655639669
scalar ws9_network.node[7].content_store 	hits[7] 	3767
scalar ws9_network.node[7].content_store 	misses[7] 	164789
scalar ws9_network.node[7].content_store 	decision_yes[7] 	924
scalar ws9_network.node[7].content_store 	decision_no[7] 	163866
scalar ws9_network.node[7].content_store 	decision_ratio[7] 	0.0056071363553614
scalar ws9_network.node[7].content_store 	correction_factor[7] 	0.0027225701061802
scalar ws9_network.node[7].content_store 	kappa[7] 	1
scalar ws9_network.node[8].core_layer 	interests[8] 	0
scalar ws9_network.node[8].core_layer 	data[8] 	0
scalar ws9_network.node[8].content_store 	p_hit[8] 	-nan
scalar ws9_network.node[8].content_store 	hits[8] 	0
scalar ws9_network.node[8].content_store 	misses[8] 	0
scalar ws9_network.node[8].content_store 	decision_yes[8] 	0
scalar ws9_network.node[8].content_store 	decision_no[8] 	0
scalar ws9_network.node[8].content_store 	decision_ratio[8] 	0
scalar ws9_network.node[8].content_store 	correction_factor[8] 	0.0027225701061802
scalar ws9_network.node[8].content_store 	kappa[8] 	1
scalar ws9_network.node[9].core_layer 	interests[9] 	0
scalar ws9_network.node[9].core_layer 	data[9] 	0
scalar ws9_network.node[9].content_store 	p_hit[9] 	-nan
scalar ws9_network.node[9].content_store 	hits[9] 	0
scalar ws9_network.node[9].content_store 	misses[9] 	0
scalar ws9_network.node[9].content_store 	decision_yes[9] 	0
scalar ws9_network.node[9].content_store 	decision_no[9] 	0
scalar ws9_network.node[9].content_store 	decision_ratio[9] 	0
scalar ws9_network.node[9].content_store 	correction_factor[9] 	0.0027225701061802
scalar ws9_network.node[9].content_store 	kappa[9] 	1
scalar ws9_network.node[10].core_layer 	interests[10] 	0
scalar ws9_network.node[10].core_layer 	data[10] 	0
scalar ws9_network.node[10].content_store 	p_hit[10] 	-nan
scalar ws9_network.node[10].content_store 	hits[10] 	0
scalar ws9_network.node[10].content_store 	misses[10] 	0
scalar ws9_network.node[10].content_store 	decision_yes[10] 	0
scalar ws9_network.node[10].content_store 	decision_no[10] 	0
scalar ws9_network.node[10].content_store 	decision_ratio[10] 	0
scalar ws9_network.node[10].content_store 	correction_factor[10] 	0.0027225701061802
scalar ws9_network.node[10].content_store 	kappa[10] 	1
scalar ws9_network.node[11].core_layer 	interests[11] 	0
scalar ws9_network.node[11].core_layer 	data[11] 	0
scalar ws9_network.node[11].content_store 	p_hit[11] 	-nan
scalar ws9_network.node[11].content_store 	hits[11] 	0
scalar ws9_network.node[11].content_store 	misses[11] 	0
scalar ws9_network.node[11].content_store 	decision_yes[11] 	0
scalar ws9_network.node[11].content_store 	decision_no[11] 	0
scalar ws9_network.node[11].content_store 	decision_ratio[11] 	0
scalar ws9_network.node[11].content_store 	correction_factor[11] 	0.0027225701061802
scalar ws9_network.node[11].content_store 	kappa[11] 	1
scalar ws9_network.node[12].core_layer 	interests[12] 	180586
scalar ws9_network.node[12].core_layer 	data[12] 	173808
scalar ws9_network.node[12].content_store 	p_hit[12] 	0.030057701039948
scalar ws9_network.node[12].content_store 	hits[12] 	5428
scalar ws9_network.node[12].content_store 	misses[12] 	175158
scalar ws9_network.node[12].content_store 	decision_yes[12] 	959
scalar ws9_network.node[12].content_store 	decision_no[12] 	172849
scalar ws9_network.node[12].content_store 	decision_ratio[12] 	0.0055175826199024
scalar ws9_network.node[12].content_store 	correction_factor[12] 	0.0027225701061802
scalar ws9_network.node[12].content_store 	kappa[12] 	1
scalar ws9_network.node[13].core_layer 	interests[13] 	0
scalar ws9_network.node[13].core_layer 	data[13] 	0
scalar ws9_network.node[13].content_store 	p_hit[13] 	-nan
scalar ws9_network.node[13].content_store 	hits[13] 	0
scalar ws9_network.node[13].content_store 	misses[13] 	0
scalar ws9_network.node[13].content_store 	decision_yes[13] 	0
scalar ws9_network.node[13].content_store 	decision_no[13] 	0
scalar ws9_network.node[13].content_store 	decision_ratio[13] 	0
scalar ws9_network.node[13].content_store 	correction_factor[13] 	0.0027225701061802
scalar ws9_network.node[13].content_store 	kappa[13] 	1
scalar ws9_network.node[14].core_layer 	interests[14] 	282115
scalar ws9_network.node[14].core_layer 	data[14] 	233670
scalar ws9_network.node[14].content_store 	p_hit[14] 	0.17004413093951
scalar ws9_network.node[14].content_store 	hits[14] 	47972
scalar ws9_network.node[14].content_store 	misses[14] 	234143
scalar ws9_network.node[14].content_store 	decision_yes[14] 	985
scalar ws9_network.node[14].content_store 	decision_no[14] 	232685
scalar ws9_network.node[14].content_store 	decision_ratio[14] 	0.0042153464287243
scalar ws9_network.node[14].content_store 	correction_factor[14] 	0.0027225701061802
scalar ws9_network.node[14].content_store 	kappa[14] 	1
scalar ws9_network.node[15].core_layer 	interests[15] 	56098
scalar ws9_network.node[15].core_layer 	data[15] 	56099
scalar ws9_network.node[15].content_store 	p_hit[15] 	0
scalar ws9_network.node[15].content_store 	hits[15] 	0
scalar ws9_network.node[15].content_store 	misses[15] 	56098
scalar ws9_network.node[15].content_store 	decision_yes[15] 	0
scalar ws9_network.node[15].content_store 	decision_no[15] 	56099
scalar ws9_network.node[15].content_store 	decision_ratio[15] 	0
scalar ws9_network.node[15].content_store 	correction_factor[15] 	0.0027225701061802
scalar ws9_network.node[15].content_store 	kappa[15] 	1
scalar ws9_network.node[16].core_layer 	interests[16] 	0
scalar ws9_network.node[16].core_layer 	data[16] 	0
scalar ws9_network.node[16].content_store 	p_hit[16] 	-nan
scalar ws9_network.node[16].content_store 	hits[16] 	0
scalar ws9_network.node[16].content_store 	misses[16] 	0
scalar ws9_network.node[16].content_store 	decision_yes[16] 	0
scalar ws9_network.node[16].content_store 	decision_no[16] 	0
scalar ws9_network.node[16].content_store 	decision_ratio[16] 	0
scalar ws9_network.node[16].content_store 	correction_factor[16] 	0.0027225701061802
scalar ws9_network.node[16].content_store 	kappa[16] 	1
scalar ws9_network.node[17].core_layer 	interests[17] 	0
scalar ws9_network.node[17].core_layer 	data[17] 	0
scalar ws9_network.node[17].content_store 	p_hit[17] 	-nan
scalar ws9_network.node[17].content_store 	hits[17] 	0
scalar ws9_network.node[17].content_store 	misses[17] 	0
scalar ws9_network.node[17].content_store 	decision_yes[17] 	0
scalar ws9_network.node[17].content_store 	decision_no[17] 	0
scalar ws9_network.node[17].content_store 	decision_ratio[17] 	0
scalar ws9_network.node[17].content_store 	correction_factor[17] 	0.0027225701061802
scalar ws9_network.node[17].content_store 	kappa[17] 	1
scalar ws9_network.node[18].core_layer 	interests[18] 	0
scalar ws9_network.node[18].core_layer 	data[18] 	0
scalar ws9_network.node[18].content_store 	p_hit[18] 	-nan
scalar ws9_network.node[18].content_store 	hits[18] 	0
scalar ws9_network.node[18].content_store 	misses[18] 	0
scalar ws9_network.node[18].content_store 	decision_yes[18] 	0
scalar ws9_network.node[18].content_store 	decision_no[18] 	0
scalar ws9_network.node[18].content_store 	decision_ratio[18] 	0
scalar ws9_network.node[18].content_store 	correction_factor[18] 	0.0027225701061802
scalar ws9_network.node[18].content_store 	kappa[18] 	1
scalar ws9_network.node[19].core_layer 	interests[19] 	0
scalar ws9_network.node[19].core_layer 	data[19] 	0
scalar ws9_network.node[19].content_store 	p_hit[19] 	-nan
scalar ws9_network.node[19].content_store 	hits[19] 	0
scalar ws9_network.node[19].content_store 	misses[19] 	0
scalar ws9_network.node[19].content_store 	decision_yes[19] 	0
scalar ws9_network.node[19].content_store 	decision_no[19] 	0
scalar ws9_network.node[19].content_store 	decision_ratio[19] 	0
scalar ws9_network.node[19].content_store 	correction_factor[19] 	0.0027225701061802
scalar ws9_network.node[19].content_store 	kappa[19] 	1
scalar ws9_network.node[20].core_layer 	interests[20] 	139526
scalar ws9_network.node[20].core_layer 	repo_load[20] 	97584
scalar ws9_network.node[20].core_layer 	data[20] 	0
scalar ws9_network.node[20].content_store 	p_hit[20] 	0.30060347175437
scalar ws9_network.node[20].content_store 	hits[20] 	41942
scalar ws9_network.node[20].content_store 	misses[20] 	97584
scalar ws9_network.node[20].content_store 	decision_yes[20] 	2586
scalar ws9_network.node[20].content_store 	decision_no[20] 	94998
scalar ws9_network.node[20].content_store 	decision_ratio[20] 	0.026500245941958
scalar ws9_network.node[20].content_store 	correction_factor[20] 	0.0027225701061802
scalar ws9_network.node[20].content_store 	kappa[20] 	1
scalar ws9_network.node[21].core_layer 	interests[21] 	56481
scalar ws9_network.node[21].core_layer 	data[21] 	49785
scalar ws9_network.node[21].content_store 	p_hit[21] 	0.11855314176449
scalar ws9_network.node[21].content_store 	hits[21] 	6696
scalar ws9_network.node[21].content_store 	misses[21] 	49785
scalar ws9_network.node[21].content_store 	decision_yes[21] 	892
scalar ws9_network.node[21].content_store 	decision_no[21] 	48893
scalar ws9_network.node[21].content_store 	decision_ratio[21] 	0.01791704328613
scalar ws9_network.node[21].content_store 	correction_factor[21] 	0.0027225701061802
scalar ws9_network.node[21].content_store 	kappa[21] 	1
scalar ws9_network.client[0] 	hdistance[0] 	3.5505588829109
scalar ws9_network.client[0] 	downloads[0] 	177318
scalar ws9_network.client[0] 	avg_time[0] 	0.014832019975
scalar ws9_network.client[0] 	interests_sent[0] 	179530
scalar ws9_network.client[3] 	hdistance[3] 	2.078337231958
scalar ws9_network.client[3] 	downloads[3] 	179123
scalar ws9_network.client[3] 	avg_time[3] 	0.007233693941
scalar ws9_network.client[3] 	interests_sent[3] 	179766
scalar ws9_network.client[12] 	hdistance[12] 	2.4543116338235
scalar ws9_network.client[12] 	downloads[12] 	179236
scalar ws9_network.client[12] 	avg_time[12] 	0.009183029483
scalar ws9_network.client[12] 	interests_sent[12] 	180586
