version 2
run General-5-20141031-11:55:14-7939
attr D costaware0.01
attr F spr
attr R lru
attr a 1
attr configname General
attr csize 1e3
attr ctlg 1e5
attr datetime 20141031-11:55:14
attr experiment General
attr inifile omnetpp.ini
attr iterationvars "$rep=18, $lambda=100, $a=1, $ctlg=1e5, $F=spr, $ttl=10, $D=costaware0.01, $R=lru, $csize=1e3, $window=60, $variance=0.05, $mytime=1800, $kappa=1, $priceratiovalue=10, $pricebits=0"
attr iterationvars2 "$rep=18, $lambda=100, $a=1, $ctlg=1e5, $F=spr, $ttl=10, $D=costaware0.01, $R=lru, $csize=1e3, $window=60, $variance=0.05, $mytime=1800, $kappa=1, $priceratiovalue=10, $pricebits=0, $repetition=0"
attr kappa 1
attr lambda 100
attr measurement "$rep=18, $lambda=100, $a=1, $ctlg=1e5, $F=spr, $ttl=10, $D=costaware0.01, $R=lru, $csize=1e3, $window=60, $variance=0.05, $mytime=1800, $kappa=1, $priceratiovalue=10, $pricebits=0"
attr mytime 1800
attr network networks.ws${rep}_network
attr pricebits 0
attr priceratiovalue 10
attr processid 7939
attr rep 18
attr repetition 0
attr replication #0
attr resultdir results
attr runnumber 5
attr seedset 18
attr ttl 10
attr variance 0.05
attr window 60

scalar . 	a 	1
scalar . 	csize 	1e3
scalar . 	ctlg 	1e5
scalar . 	kappa 	1
scalar . 	lambda 	100
scalar . 	mytime 	1800
scalar . 	pricebits 	0
scalar . 	priceratiovalue 	10
scalar . 	rep 	18
scalar . 	ttl 	10
scalar . 	variance 	0.05
scalar . 	window 	60
scalar ws18_network.content_distribution 	repo-0 	13
scalar ws18_network.content_distribution 	repo-1 	7
scalar ws18_network.content_distribution 	repo-2 	8
scalar ws18_network.content_distribution 	client-0 	5
scalar ws18_network.content_distribution 	client-1 	1
scalar ws18_network.content_distribution 	client-2 	16
scalar ws18_network.content_distribution 	repo-0_card 	33458
scalar ws18_network.content_distribution 	repo-0_price 	10
scalar ws18_network.content_distribution 	repo-1_card 	33219
scalar ws18_network.content_distribution 	repo-1_price 	1
scalar ws18_network.content_distribution 	repo-2_card 	33323
scalar ws18_network.content_distribution 	repo-2_price 	0
scalar ws18_network.statistics 	repo_popularity[0] 	0.43323683832893
scalar ws18_network.statistics 	repo_popularity[1] 	0.27229839117188
scalar ws18_network.statistics 	repo_popularity[2] 	0.2944647704992
scalar ws18_network.statistics 	stabilization_time 	36060
scalar ws18_network.statistics 	p_hit 	0.13045550101244
scalar ws18_network.statistics 	interests 	65817.636363636
scalar ws18_network.statistics 	data 	41236.681818182
scalar ws18_network.statistics 	hdistance 	2.3379618624199
scalar ws18_network.statistics 	avg_time 	0.008723472001
scalar ws18_network.statistics 	downloads 	537724
scalar ws18_network.statistics 	total_cost 	1074721
scalar ws18_network.statistics 	total_replicas 	100000
scalar ws18_network.statistics 	inner_hit 	0.35203189740462
scalar ws18_network.statistics 	interests_sent 	540783
scalar ws18_network.node[0].core_layer 	interests[0] 	91628
scalar ws18_network.node[0].core_layer 	data[0] 	78134
scalar ws18_network.node[0].core_layer 	repo_int[0] 	348428
scalar ws18_network.node[0].content_store 	p_hit[0] 	0.14702929235605
scalar ws18_network.node[0].content_store 	hits[0] 	13472
scalar ws18_network.node[0].content_store 	misses[0] 	78156
scalar ws18_network.node[0].content_store 	decision_yes[0] 	164
scalar ws18_network.node[0].content_store 	decision_no[0] 	77970
scalar ws18_network.node[0].content_store 	decision_ratio[0] 	0.0020989582000154
scalar ws18_network.node[0].content_store 	correction_factor[0] 	0.0027225701061802
scalar ws18_network.node[0].content_store 	kappa[0] 	1
scalar ws18_network.node[1].core_layer 	interests[1] 	243748
scalar ws18_network.node[1].core_layer 	data[1] 	200126
scalar ws18_network.node[1].content_store 	p_hit[1] 	0.17596041813676
scalar ws18_network.node[1].content_store 	hits[1] 	42890
scalar ws18_network.node[1].content_store 	misses[1] 	200858
scalar ws18_network.node[1].content_store 	decision_yes[1] 	1900
scalar ws18_network.node[1].content_store 	decision_no[1] 	198226
scalar ws18_network.node[1].content_store 	decision_ratio[1] 	0.009494018768176
scalar ws18_network.node[1].content_store 	correction_factor[1] 	0.0027225701061802
scalar ws18_network.node[1].content_store 	kappa[1] 	1
scalar ws18_network.node[2].core_layer 	interests[2] 	0
scalar ws18_network.node[2].core_layer 	data[2] 	0
scalar ws18_network.node[2].content_store 	p_hit[2] 	-nan
scalar ws18_network.node[2].content_store 	hits[2] 	0
scalar ws18_network.node[2].content_store 	misses[2] 	0
scalar ws18_network.node[2].content_store 	decision_yes[2] 	0
scalar ws18_network.node[2].content_store 	decision_no[2] 	0
scalar ws18_network.node[2].content_store 	decision_ratio[2] 	0
scalar ws18_network.node[2].content_store 	correction_factor[2] 	0.0027225701061802
scalar ws18_network.node[2].content_store 	kappa[2] 	1
scalar ws18_network.node[3].core_layer 	interests[3] 	114136
scalar ws18_network.node[3].core_layer 	data[3] 	107576
scalar ws18_network.node[3].content_store 	p_hit[3] 	0.05747529263335
scalar ws18_network.node[3].content_store 	hits[3] 	6560
scalar ws18_network.node[3].content_store 	misses[3] 	107576
scalar ws18_network.node[3].content_store 	decision_yes[3] 	937
scalar ws18_network.node[3].content_store 	decision_no[3] 	106639
scalar ws18_network.node[3].content_store 	decision_ratio[3] 	0.0087101212166282
scalar ws18_network.node[3].content_store 	correction_factor[3] 	0.0027225701061802
scalar ws18_network.node[3].content_store 	kappa[3] 	1
scalar ws18_network.node[4].core_layer 	interests[4] 	0
scalar ws18_network.node[4].core_layer 	data[4] 	0
scalar ws18_network.node[4].content_store 	p_hit[4] 	-nan
scalar ws18_network.node[4].content_store 	hits[4] 	0
scalar ws18_network.node[4].content_store 	misses[4] 	0
scalar ws18_network.node[4].content_store 	decision_yes[4] 	0
scalar ws18_network.node[4].content_store 	decision_no[4] 	0
scalar ws18_network.node[4].content_store 	decision_ratio[4] 	0
scalar ws18_network.node[4].content_store 	correction_factor[4] 	0.0027225701061802
scalar ws18_network.node[4].content_store 	kappa[4] 	1
scalar ws18_network.node[5].core_layer 	interests[5] 	179774
scalar ws18_network.node[5].core_layer 	data[5] 	166852
scalar ws18_network.node[5].content_store 	p_hit[5] 	0.060993247076885
scalar ws18_network.node[5].content_store 	hits[5] 	10965
scalar ws18_network.node[5].content_store 	misses[5] 	168809
scalar ws18_network.node[5].content_store 	decision_yes[5] 	907
scalar ws18_network.node[5].content_store 	decision_no[5] 	165945
scalar ws18_network.node[5].content_store 	decision_ratio[5] 	0.0054359552177978
scalar ws18_network.node[5].content_store 	correction_factor[5] 	0.0027225701061802
scalar ws18_network.node[5].content_store 	kappa[5] 	1
scalar ws18_network.node[6].core_layer 	interests[6] 	0
scalar ws18_network.node[6].core_layer 	data[6] 	0
scalar ws18_network.node[6].content_store 	p_hit[6] 	-nan
scalar ws18_network.node[6].content_store 	hits[6] 	0
scalar ws18_network.node[6].content_store 	misses[6] 	0
scalar ws18_network.node[6].content_store 	decision_yes[6] 	0
scalar ws18_network.node[6].content_store 	decision_no[6] 	0
scalar ws18_network.node[6].content_store 	decision_ratio[6] 	0
scalar ws18_network.node[6].content_store 	correction_factor[6] 	0.0027225701061802
scalar ws18_network.node[6].content_store 	kappa[6] 	1
scalar ws18_network.node[7].core_layer 	interests[7] 	115281
scalar ws18_network.node[7].core_layer 	repo_load[7] 	91741
scalar ws18_network.node[7].core_layer 	data[7] 	0
scalar ws18_network.node[7].content_store 	p_hit[7] 	0.2041967019717
scalar ws18_network.node[7].content_store 	hits[7] 	23540
scalar ws18_network.node[7].content_store 	misses[7] 	91741
scalar ws18_network.node[7].content_store 	decision_yes[7] 	265
scalar ws18_network.node[7].content_store 	decision_no[7] 	91476
scalar ws18_network.node[7].content_store 	decision_ratio[7] 	0.0028885667258914
scalar ws18_network.node[7].content_store 	correction_factor[7] 	0.0027225701061802
scalar ws18_network.node[7].content_store 	kappa[7] 	1
scalar ws18_network.node[8].core_layer 	interests[8] 	204488
scalar ws18_network.node[8].core_layer 	repo_load[8] 	158389
scalar ws18_network.node[8].core_layer 	data[8] 	37147
scalar ws18_network.node[8].content_store 	p_hit[8] 	0.043777629983177
scalar ws18_network.node[8].content_store 	hits[8] 	8952
scalar ws18_network.node[8].content_store 	misses[8] 	195536
scalar ws18_network.node[8].content_store 	decision_yes[8] 	98
scalar ws18_network.node[8].content_store 	decision_no[8] 	195438
scalar ws18_network.node[8].content_store 	decision_ratio[8] 	0.00050118648228459
scalar ws18_network.node[8].content_store 	correction_factor[8] 	0.0027225701061802
scalar ws18_network.node[8].content_store 	kappa[8] 	1
scalar ws18_network.node[9].core_layer 	interests[9] 	0
scalar ws18_network.node[9].core_layer 	data[9] 	0
scalar ws18_network.node[9].content_store 	p_hit[9] 	-nan
scalar ws18_network.node[9].content_store 	hits[9] 	0
scalar ws18_network.node[9].content_store 	misses[9] 	0
scalar ws18_network.node[9].content_store 	decision_yes[9] 	0
scalar ws18_network.node[9].content_store 	decision_no[9] 	0
scalar ws18_network.node[9].content_store 	decision_ratio[9] 	0
scalar ws18_network.node[9].content_store 	correction_factor[9] 	0.0027225701061802
scalar ws18_network.node[9].content_store 	kappa[9] 	1
scalar ws18_network.node[10].core_layer 	interests[10] 	111230
scalar ws18_network.node[10].core_layer 	data[10] 	105649
scalar ws18_network.node[10].content_store 	p_hit[10] 	0.050184302796008
scalar ws18_network.node[10].content_store 	hits[10] 	5582
scalar ws18_network.node[10].content_store 	misses[10] 	105648
scalar ws18_network.node[10].content_store 	decision_yes[10] 	868
scalar ws18_network.node[10].content_store 	decision_no[10] 	104781
scalar ws18_network.node[10].content_store 	decision_ratio[10] 	0.0082158846747248
scalar ws18_network.node[10].content_store 	correction_factor[10] 	0.0027225701061802
scalar ws18_network.node[10].content_store 	kappa[10] 	1
scalar ws18_network.node[11].core_layer 	interests[11] 	0
scalar ws18_network.node[11].core_layer 	data[11] 	0
scalar ws18_network.node[11].content_store 	p_hit[11] 	-nan
scalar ws18_network.node[11].content_store 	hits[11] 	0
scalar ws18_network.node[11].content_store 	misses[11] 	0
scalar ws18_network.node[11].content_store 	decision_yes[11] 	0
scalar ws18_network.node[11].content_store 	decision_no[11] 	0
scalar ws18_network.node[11].content_store 	decision_ratio[11] 	0
scalar ws18_network.node[11].content_store 	correction_factor[11] 	0.0027225701061802
scalar ws18_network.node[11].content_store 	kappa[11] 	1
scalar ws18_network.node[12].core_layer 	interests[12] 	0
scalar ws18_network.node[12].core_layer 	data[12] 	0
scalar ws18_network.node[12].content_store 	p_hit[12] 	-nan
scalar ws18_network.node[12].content_store 	hits[12] 	0
scalar ws18_network.node[12].content_store 	misses[12] 	0
scalar ws18_network.node[12].content_store 	decision_yes[12] 	0
scalar ws18_network.node[12].content_store 	decision_no[12] 	0
scalar ws18_network.node[12].content_store 	decision_ratio[12] 	0
scalar ws18_network.node[12].content_store 	correction_factor[12] 	0.0027225701061802
scalar ws18_network.node[12].content_store 	kappa[12] 	1
scalar ws18_network.node[13].core_layer 	interests[13] 	154002
scalar ws18_network.node[13].core_layer 	repo_load[13] 	98298
scalar ws18_network.node[13].core_layer 	data[13] 	0
scalar ws18_network.node[13].content_store 	p_hit[13] 	0.36170958818717
scalar ws18_network.node[13].content_store 	hits[13] 	55704
scalar ws18_network.node[13].content_store 	misses[13] 	98298
scalar ws18_network.node[13].content_store 	decision_yes[13] 	2626
scalar ws18_network.node[13].content_store 	decision_no[13] 	95672
scalar ws18_network.node[13].content_store 	decision_ratio[13] 	0.026714683920324
scalar ws18_network.node[13].content_store 	correction_factor[13] 	0.0027225701061802
scalar ws18_network.node[13].content_store 	kappa[13] 	1
scalar ws18_network.node[14].core_layer 	interests[14] 	0
scalar ws18_network.node[14].core_layer 	data[14] 	0
scalar ws18_network.node[14].content_store 	p_hit[14] 	-nan
scalar ws18_network.node[14].content_store 	hits[14] 	0
scalar ws18_network.node[14].content_store 	misses[14] 	0
scalar ws18_network.node[14].content_store 	decision_yes[14] 	0
scalar ws18_network.node[14].content_store 	decision_no[14] 	0
scalar ws18_network.node[14].content_store 	decision_ratio[14] 	0
scalar ws18_network.node[14].content_store 	correction_factor[14] 	0.0027225701061802
scalar ws18_network.node[14].content_store 	kappa[14] 	1
scalar ws18_network.node[15].core_layer 	interests[15] 	0
scalar ws18_network.node[15].core_layer 	data[15] 	0
scalar ws18_network.node[15].content_store 	p_hit[15] 	-nan
scalar ws18_network.node[15].content_store 	hits[15] 	0
scalar ws18_network.node[15].content_store 	misses[15] 	0
scalar ws18_network.node[15].content_store 	decision_yes[15] 	0
scalar ws18_network.node[15].content_store 	decision_no[15] 	0
scalar ws18_network.node[15].content_store 	decision_ratio[15] 	0
scalar ws18_network.node[15].content_store 	correction_factor[15] 	0.0027225701061802
scalar ws18_network.node[15].content_store 	kappa[15] 	1
scalar ws18_network.node[16].core_layer 	interests[16] 	180985
scalar ws18_network.node[16].core_layer 	data[16] 	159007
scalar ws18_network.node[16].content_store 	p_hit[16] 	0.11731911484377
scalar ws18_network.node[16].content_store 	hits[16] 	21233
scalar ws18_network.node[16].content_store 	misses[16] 	159752
scalar ws18_network.node[16].content_store 	decision_yes[16] 	1010
scalar ws18_network.node[16].content_store 	decision_no[16] 	157997
scalar ws18_network.node[16].content_store 	decision_ratio[16] 	0.0063519216135139
scalar ws18_network.node[16].content_store 	correction_factor[16] 	0.0027225701061802
scalar ws18_network.node[16].content_store 	kappa[16] 	1
scalar ws18_network.node[17].core_layer 	interests[17] 	52716
scalar ws18_network.node[17].core_layer 	data[17] 	52716
scalar ws18_network.node[17].content_store 	p_hit[17] 	0
scalar ws18_network.node[17].content_store 	hits[17] 	0
scalar ws18_network.node[17].content_store 	misses[17] 	52716
scalar ws18_network.node[17].content_store 	decision_yes[17] 	0
scalar ws18_network.node[17].content_store 	decision_no[17] 	52716
scalar ws18_network.node[17].content_store 	decision_ratio[17] 	0
scalar ws18_network.node[17].content_store 	correction_factor[17] 	0.0027225701061802
scalar ws18_network.node[17].content_store 	kappa[17] 	1
scalar ws18_network.node[18].core_layer 	interests[18] 	0
scalar ws18_network.node[18].core_layer 	data[18] 	0
scalar ws18_network.node[18].content_store 	p_hit[18] 	-nan
scalar ws18_network.node[18].content_store 	hits[18] 	0
scalar ws18_network.node[18].content_store 	misses[18] 	0
scalar ws18_network.node[18].content_store 	decision_yes[18] 	0
scalar ws18_network.node[18].content_store 	decision_no[18] 	0
scalar ws18_network.node[18].content_store 	decision_ratio[18] 	0
scalar ws18_network.node[18].content_store 	correction_factor[18] 	0.0027225701061802
scalar ws18_network.node[18].content_store 	kappa[18] 	1
scalar ws18_network.node[19].core_layer 	interests[19] 	0
scalar ws18_network.node[19].core_layer 	data[19] 	0
scalar ws18_network.node[19].content_store 	p_hit[19] 	-nan
scalar ws18_network.node[19].content_store 	hits[19] 	0
scalar ws18_network.node[19].content_store 	misses[19] 	0
scalar ws18_network.node[19].content_store 	decision_yes[19] 	0
scalar ws18_network.node[19].content_store 	decision_no[19] 	0
scalar ws18_network.node[19].content_store 	decision_ratio[19] 	0
scalar ws18_network.node[19].content_store 	correction_factor[19] 	0.0027225701061802
scalar ws18_network.node[19].content_store 	kappa[19] 	1
scalar ws18_network.node[20].core_layer 	interests[20] 	0
scalar ws18_network.node[20].core_layer 	data[20] 	0
scalar ws18_network.node[20].content_store 	p_hit[20] 	-nan
scalar ws18_network.node[20].content_store 	hits[20] 	0
scalar ws18_network.node[20].content_store 	misses[20] 	0
scalar ws18_network.node[20].content_store 	decision_yes[20] 	0
scalar ws18_network.node[20].content_store 	decision_no[20] 	0
scalar ws18_network.node[20].content_store 	decision_ratio[20] 	0
scalar ws18_network.node[20].content_store 	correction_factor[20] 	0.0027225701061802
scalar ws18_network.node[20].content_store 	kappa[20] 	1
scalar ws18_network.node[21].core_layer 	interests[21] 	0
scalar ws18_network.node[21].core_layer 	data[21] 	0
scalar ws18_network.node[21].content_store 	p_hit[21] 	-nan
scalar ws18_network.node[21].content_store 	hits[21] 	0
scalar ws18_network.node[21].content_store 	misses[21] 	0
scalar ws18_network.node[21].content_store 	decision_yes[21] 	0
scalar ws18_network.node[21].content_store 	decision_no[21] 	0
scalar ws18_network.node[21].content_store 	decision_ratio[21] 	0
scalar ws18_network.node[21].content_store 	correction_factor[21] 	0.0027225701061802
scalar ws18_network.node[21].content_store 	kappa[21] 	1
scalar ws18_network.client[1] 	hdistance[1] 	1.7284977207835
scalar ws18_network.client[1] 	downloads[1] 	179667
scalar ws18_network.client[1] 	avg_time[1] 	0.00553882369
scalar ws18_network.client[1] 	interests_sent[1] 	180024
scalar ws18_network.client[5] 	hdistance[5] 	2.9514275912877
scalar ws18_network.client[5] 	downloads[5] 	177817
scalar ws18_network.client[5] 	avg_time[5] 	0.011893733898
scalar ws18_network.client[5] 	interests_sent[5] 	179774
scalar ws18_network.client[16] 	hdistance[16] 	2.3339602751886
scalar ws18_network.client[16] 	downloads[16] 	180240
scalar ws18_network.client[16] 	avg_time[16] 	0.008737858417
scalar ws18_network.client[16] 	interests_sent[16] 	180985
