version 2
run General-5-20141030-18:28:31-30769
attr D costaware0.01
attr F spr
attr R lru
attr a 1
attr configname General
attr csize 1e3
attr ctlg 1e5
attr datetime 20141030-18:28:31
attr experiment General
attr inifile omnetpp.ini
attr iterationvars "$rep=10, $lambda=100, $a=1, $ctlg=1e5, $F=spr, $ttl=10, $D=costaware0.01, $R=lru, $csize=1e3, $window=60, $variance=0.05, $mytime=1800, $kappa=1, $priceratiovalue=10, $pricebits=0"
attr iterationvars2 "$rep=10, $lambda=100, $a=1, $ctlg=1e5, $F=spr, $ttl=10, $D=costaware0.01, $R=lru, $csize=1e3, $window=60, $variance=0.05, $mytime=1800, $kappa=1, $priceratiovalue=10, $pricebits=0, $repetition=0"
attr kappa 1
attr lambda 100
attr measurement "$rep=10, $lambda=100, $a=1, $ctlg=1e5, $F=spr, $ttl=10, $D=costaware0.01, $R=lru, $csize=1e3, $window=60, $variance=0.05, $mytime=1800, $kappa=1, $priceratiovalue=10, $pricebits=0"
attr mytime 1800
attr network networks.ws${rep}_network
attr pricebits 0
attr priceratiovalue 10
attr processid 30769
attr rep 10
attr repetition 0
attr replication #0
attr resultdir results
attr runnumber 5
attr seedset 10
attr ttl 10
attr variance 0.05
attr window 60

scalar . 	a 	1
scalar . 	csize 	1e3
scalar . 	ctlg 	1e5
scalar . 	kappa 	1
scalar . 	lambda 	100
scalar . 	mytime 	1800
scalar . 	pricebits 	0
scalar . 	priceratiovalue 	10
scalar . 	rep 	10
scalar . 	ttl 	10
scalar . 	variance 	0.05
scalar . 	window 	60
scalar ws10_network.content_distribution 	repo-0 	18
scalar ws10_network.content_distribution 	repo-1 	16
scalar ws10_network.content_distribution 	repo-2 	2
scalar ws10_network.content_distribution 	client-0 	6
scalar ws10_network.content_distribution 	client-1 	10
scalar ws10_network.content_distribution 	client-2 	14
scalar ws10_network.content_distribution 	repo-0_card 	33052
scalar ws10_network.content_distribution 	repo-0_price 	1
scalar ws10_network.content_distribution 	repo-1_card 	33537
scalar ws10_network.content_distribution 	repo-1_price 	0
scalar ws10_network.content_distribution 	repo-2_card 	33411
scalar ws10_network.content_distribution 	repo-2_price 	10
scalar ws10_network.statistics 	repo_popularity[0] 	0.34236468954978
scalar ws10_network.statistics 	repo_popularity[1] 	0.29818826856529
scalar ws10_network.statistics 	repo_popularity[2] 	0.35944704188494
scalar ws10_network.statistics 	stabilization_time 	36060
scalar ws10_network.statistics 	p_hit 	0.12270753466421
scalar ws10_network.statistics 	interests 	71117.363636364
scalar ws10_network.statistics 	data 	46555.545454545
scalar ws10_network.statistics 	hdistance 	2.5543038989913
scalar ws10_network.statistics 	avg_time 	0.009874812526
scalar ws10_network.statistics 	downloads 	535587
scalar ws10_network.statistics 	total_cost 	1003292
scalar ws10_network.statistics 	total_replicas 	100000
scalar ws10_network.statistics 	inner_hit 	0.35867935554821
scalar ws10_network.statistics 	interests_sent 	540359
scalar ws10_network.node[0].core_layer 	interests[0] 	148851
scalar ws10_network.node[0].core_layer 	data[0] 	134580
scalar ws10_network.node[0].core_layer 	repo_int[0] 	343483
scalar ws10_network.node[0].content_store 	p_hit[0] 	0.095753471592398
scalar ws10_network.node[0].content_store 	hits[0] 	14253
scalar ws10_network.node[0].content_store 	misses[0] 	134598
scalar ws10_network.node[0].content_store 	decision_yes[0] 	1556
scalar ws10_network.node[0].content_store 	decision_no[0] 	133024
scalar ws10_network.node[0].content_store 	decision_ratio[0] 	0.011561896269877
scalar ws10_network.node[0].content_store 	correction_factor[0] 	0.0027225701061802
scalar ws10_network.node[0].content_store 	kappa[0] 	1
scalar ws10_network.node[1].core_layer 	interests[1] 	98810
scalar ws10_network.node[1].core_layer 	data[1] 	94747
scalar ws10_network.node[1].content_store 	p_hit[1] 	0.041129440340047
scalar ws10_network.node[1].content_store 	hits[1] 	4064
scalar ws10_network.node[1].content_store 	misses[1] 	94746
scalar ws10_network.node[1].content_store 	decision_yes[1] 	824
scalar ws10_network.node[1].content_store 	decision_no[1] 	93923
scalar ws10_network.node[1].content_store 	decision_ratio[1] 	0.0086968452827002
scalar ws10_network.node[1].content_store 	correction_factor[1] 	0.0027225701061802
scalar ws10_network.node[1].content_store 	kappa[1] 	1
scalar ws10_network.node[2].core_layer 	interests[2] 	130562
scalar ws10_network.node[2].core_layer 	repo_load[2] 	91184
scalar ws10_network.node[2].core_layer 	data[2] 	0
scalar ws10_network.node[2].content_store 	p_hit[2] 	0.30160383572556
scalar ws10_network.node[2].content_store 	hits[2] 	39378
scalar ws10_network.node[2].content_store 	misses[2] 	91184
scalar ws10_network.node[2].content_store 	decision_yes[2] 	2470
scalar ws10_network.node[2].content_store 	decision_no[2] 	88714
scalar ws10_network.node[2].content_store 	decision_ratio[2] 	0.027088085629058
scalar ws10_network.node[2].content_store 	correction_factor[2] 	0.0027225701061802
scalar ws10_network.node[2].content_store 	kappa[2] 	1
scalar ws10_network.node[3].core_layer 	interests[3] 	61176
scalar ws10_network.node[3].core_layer 	data[3] 	49618
scalar ws10_network.node[3].content_store 	p_hit[3] 	0.18893029946384
scalar ws10_network.node[3].content_store 	hits[3] 	11558
scalar ws10_network.node[3].content_store 	misses[3] 	49618
scalar ws10_network.node[3].content_store 	decision_yes[3] 	915
scalar ws10_network.node[3].content_store 	decision_no[3] 	48703
scalar ws10_network.node[3].content_store 	decision_ratio[3] 	0.018440888387279
scalar ws10_network.node[3].content_store 	correction_factor[3] 	0.0027225701061802
scalar ws10_network.node[3].content_store 	kappa[3] 	1
scalar ws10_network.node[4].core_layer 	interests[4] 	0
scalar ws10_network.node[4].core_layer 	data[4] 	0
scalar ws10_network.node[4].content_store 	p_hit[4] 	-nan
scalar ws10_network.node[4].content_store 	hits[4] 	0
scalar ws10_network.node[4].content_store 	misses[4] 	0
scalar ws10_network.node[4].content_store 	decision_yes[4] 	0
scalar ws10_network.node[4].content_store 	decision_no[4] 	0
scalar ws10_network.node[4].content_store 	decision_ratio[4] 	0
scalar ws10_network.node[4].content_store 	correction_factor[4] 	0.0027225701061802
scalar ws10_network.node[4].content_store 	kappa[4] 	1
scalar ws10_network.node[5].core_layer 	interests[5] 	0
scalar ws10_network.node[5].core_layer 	data[5] 	0
scalar ws10_network.node[5].content_store 	p_hit[5] 	-nan
scalar ws10_network.node[5].content_store 	hits[5] 	0
scalar ws10_network.node[5].content_store 	misses[5] 	0
scalar ws10_network.node[5].content_store 	decision_yes[5] 	0
scalar ws10_network.node[5].content_store 	decision_no[5] 	0
scalar ws10_network.node[5].content_store 	decision_ratio[5] 	0
scalar ws10_network.node[5].content_store 	correction_factor[5] 	0.0027225701061802
scalar ws10_network.node[5].content_store 	kappa[5] 	1
scalar ws10_network.node[6].core_layer 	interests[6] 	179478
scalar ws10_network.node[6].core_layer 	data[6] 	170966
scalar ws10_network.node[6].content_store 	p_hit[6] 	0.03405431306344
scalar ws10_network.node[6].content_store 	hits[6] 	6112
scalar ws10_network.node[6].content_store 	misses[6] 	173366
scalar ws10_network.node[6].content_store 	decision_yes[6] 	947
scalar ws10_network.node[6].content_store 	decision_no[6] 	170019
scalar ws10_network.node[6].content_store 	decision_ratio[6] 	0.0055391130400197
scalar ws10_network.node[6].content_store 	correction_factor[6] 	0.0027225701061802
scalar ws10_network.node[6].content_store 	kappa[6] 	1
scalar ws10_network.node[7].core_layer 	interests[7] 	0
scalar ws10_network.node[7].core_layer 	data[7] 	0
scalar ws10_network.node[7].content_store 	p_hit[7] 	-nan
scalar ws10_network.node[7].content_store 	hits[7] 	0
scalar ws10_network.node[7].content_store 	misses[7] 	0
scalar ws10_network.node[7].content_store 	decision_yes[7] 	0
scalar ws10_network.node[7].content_store 	decision_no[7] 	0
scalar ws10_network.node[7].content_store 	decision_ratio[7] 	0
scalar ws10_network.node[7].content_store 	correction_factor[7] 	0.0027225701061802
scalar ws10_network.node[7].content_store 	kappa[7] 	1
scalar ws10_network.node[8].core_layer 	interests[8] 	0
scalar ws10_network.node[8].core_layer 	data[8] 	0
scalar ws10_network.node[8].content_store 	p_hit[8] 	-nan
scalar ws10_network.node[8].content_store 	hits[8] 	0
scalar ws10_network.node[8].content_store 	misses[8] 	0
scalar ws10_network.node[8].content_store 	decision_yes[8] 	0
scalar ws10_network.node[8].content_store 	decision_no[8] 	0
scalar ws10_network.node[8].content_store 	decision_ratio[8] 	0
scalar ws10_network.node[8].content_store 	correction_factor[8] 	0.0027225701061802
scalar ws10_network.node[8].content_store 	kappa[8] 	1
scalar ws10_network.node[9].core_layer 	interests[9] 	0
scalar ws10_network.node[9].core_layer 	data[9] 	0
scalar ws10_network.node[9].content_store 	p_hit[9] 	-nan
scalar ws10_network.node[9].content_store 	hits[9] 	0
scalar ws10_network.node[9].content_store 	misses[9] 	0
scalar ws10_network.node[9].content_store 	decision_yes[9] 	0
scalar ws10_network.node[9].content_store 	decision_no[9] 	0
scalar ws10_network.node[9].content_store 	decision_ratio[9] 	0
scalar ws10_network.node[9].content_store 	correction_factor[9] 	0.0027225701061802
scalar ws10_network.node[9].content_store 	kappa[9] 	1
scalar ws10_network.node[10].core_layer 	interests[10] 	180211
scalar ws10_network.node[10].core_layer 	data[10] 	156142
scalar ws10_network.node[10].content_store 	p_hit[10] 	0.1298644366881
scalar ws10_network.node[10].content_store 	hits[10] 	23403
scalar ws10_network.node[10].content_store 	misses[10] 	156808
scalar ws10_network.node[10].content_store 	decision_yes[10] 	925
scalar ws10_network.node[10].content_store 	decision_no[10] 	155217
scalar ws10_network.node[10].content_store 	decision_ratio[10] 	0.0059240947342803
scalar ws10_network.node[10].content_store 	correction_factor[10] 	0.0027225701061802
scalar ws10_network.node[10].content_store 	kappa[10] 	1
scalar ws10_network.node[11].core_layer 	interests[11] 	0
scalar ws10_network.node[11].core_layer 	data[11] 	0
scalar ws10_network.node[11].content_store 	p_hit[11] 	-nan
scalar ws10_network.node[11].content_store 	hits[11] 	0
scalar ws10_network.node[11].content_store 	misses[11] 	0
scalar ws10_network.node[11].content_store 	decision_yes[11] 	0
scalar ws10_network.node[11].content_store 	decision_no[11] 	0
scalar ws10_network.node[11].content_store 	decision_ratio[11] 	0
scalar ws10_network.node[11].content_store 	correction_factor[11] 	0.0027225701061802
scalar ws10_network.node[11].content_store 	kappa[11] 	1
scalar ws10_network.node[12].core_layer 	interests[12] 	115662
scalar ws10_network.node[12].core_layer 	data[12] 	88910
scalar ws10_network.node[12].content_store 	p_hit[12] 	0.23043004616901
scalar ws10_network.node[12].content_store 	hits[12] 	26652
scalar ws10_network.node[12].content_store 	misses[12] 	89010
scalar ws10_network.node[12].content_store 	decision_yes[12] 	186
scalar ws10_network.node[12].content_store 	decision_no[12] 	88724
scalar ws10_network.node[12].content_store 	decision_ratio[12] 	0.0020920031492521
scalar ws10_network.node[12].content_store 	correction_factor[12] 	0.0027225701061802
scalar ws10_network.node[12].content_store 	kappa[12] 	1
scalar ws10_network.node[13].core_layer 	interests[13] 	0
scalar ws10_network.node[13].core_layer 	data[13] 	0
scalar ws10_network.node[13].content_store 	p_hit[13] 	-nan
scalar ws10_network.node[13].content_store 	hits[13] 	0
scalar ws10_network.node[13].content_store 	misses[13] 	0
scalar ws10_network.node[13].content_store 	decision_yes[13] 	0
scalar ws10_network.node[13].content_store 	decision_no[13] 	0
scalar ws10_network.node[13].content_store 	decision_ratio[13] 	0
scalar ws10_network.node[13].content_store 	correction_factor[13] 	0.0027225701061802
scalar ws10_network.node[13].content_store 	kappa[13] 	1
scalar ws10_network.node[14].core_layer 	interests[14] 	180670
scalar ws10_network.node[14].core_layer 	data[14] 	174560
scalar ws10_network.node[14].content_store 	p_hit[14] 	0.024375934023358
scalar ws10_network.node[14].content_store 	hits[14] 	4404
scalar ws10_network.node[14].content_store 	misses[14] 	176266
scalar ws10_network.node[14].content_store 	decision_yes[14] 	884
scalar ws10_network.node[14].content_store 	decision_no[14] 	173676
scalar ws10_network.node[14].content_store 	decision_ratio[14] 	0.00506416131989
scalar ws10_network.node[14].content_store 	correction_factor[14] 	0.0027225701061802
scalar ws10_network.node[14].content_store 	kappa[14] 	1
scalar ws10_network.node[15].core_layer 	interests[15] 	0
scalar ws10_network.node[15].core_layer 	data[15] 	0
scalar ws10_network.node[15].content_store 	p_hit[15] 	-nan
scalar ws10_network.node[15].content_store 	hits[15] 	0
scalar ws10_network.node[15].content_store 	misses[15] 	0
scalar ws10_network.node[15].content_store 	decision_yes[15] 	0
scalar ws10_network.node[15].content_store 	decision_no[15] 	0
scalar ws10_network.node[15].content_store 	decision_ratio[15] 	0
scalar ws10_network.node[15].content_store 	correction_factor[15] 	0.0027225701061802
scalar ws10_network.node[15].content_store 	kappa[15] 	1
scalar ws10_network.node[16].core_layer 	interests[16] 	278333
scalar ws10_network.node[16].core_layer 	repo_load[16] 	160847
scalar ws10_network.node[16].core_layer 	data[16] 	110112
scalar ws10_network.node[16].content_store 	p_hit[16] 	0.026489852083655
scalar ws10_network.node[16].content_store 	hits[16] 	7373
scalar ws10_network.node[16].content_store 	misses[16] 	270960
scalar ws10_network.node[16].content_store 	decision_yes[16] 	892
scalar ws10_network.node[16].content_store 	decision_no[16] 	270067
scalar ws10_network.node[16].content_store 	decision_ratio[16] 	0.0032920109684491
scalar ws10_network.node[16].content_store 	correction_factor[16] 	0.0027225701061802
scalar ws10_network.node[16].content_store 	kappa[16] 	1
scalar ws10_network.node[17].core_layer 	interests[17] 	0
scalar ws10_network.node[17].core_layer 	data[17] 	0
scalar ws10_network.node[17].content_store 	p_hit[17] 	-nan
scalar ws10_network.node[17].content_store 	hits[17] 	0
scalar ws10_network.node[17].content_store 	misses[17] 	0
scalar ws10_network.node[17].content_store 	decision_yes[17] 	0
scalar ws10_network.node[17].content_store 	decision_no[17] 	0
scalar ws10_network.node[17].content_store 	decision_ratio[17] 	0
scalar ws10_network.node[17].content_store 	correction_factor[17] 	0.0027225701061802
scalar ws10_network.node[17].content_store 	kappa[17] 	1
scalar ws10_network.node[18].core_layer 	interests[18] 	133497
scalar ws10_network.node[18].core_layer 	repo_load[18] 	91452
scalar ws10_network.node[18].core_layer 	data[18] 	0
scalar ws10_network.node[18].content_store 	p_hit[18] 	0.31495089777298
scalar ws10_network.node[18].content_store 	hits[18] 	42045
scalar ws10_network.node[18].content_store 	misses[18] 	91452
scalar ws10_network.node[18].content_store 	decision_yes[18] 	253
scalar ws10_network.node[18].content_store 	decision_no[18] 	91199
scalar ws10_network.node[18].content_store 	decision_ratio[18] 	0.0027664785898613
scalar ws10_network.node[18].content_store 	correction_factor[18] 	0.0027225701061802
scalar ws10_network.node[18].content_store 	kappa[18] 	1
scalar ws10_network.node[19].core_layer 	interests[19] 	0
scalar ws10_network.node[19].core_layer 	data[19] 	0
scalar ws10_network.node[19].content_store 	p_hit[19] 	-nan
scalar ws10_network.node[19].content_store 	hits[19] 	0
scalar ws10_network.node[19].content_store 	misses[19] 	0
scalar ws10_network.node[19].content_store 	decision_yes[19] 	0
scalar ws10_network.node[19].content_store 	decision_no[19] 	0
scalar ws10_network.node[19].content_store 	decision_ratio[19] 	0
scalar ws10_network.node[19].content_store 	correction_factor[19] 	0.0027225701061802
scalar ws10_network.node[19].content_store 	kappa[19] 	1
scalar ws10_network.node[20].core_layer 	interests[20] 	57332
scalar ws10_network.node[20].core_layer 	data[20] 	44587
scalar ws10_network.node[20].content_store 	p_hit[20] 	0.22228423916835
scalar ws10_network.node[20].content_store 	hits[20] 	12744
scalar ws10_network.node[20].content_store 	misses[20] 	44588
scalar ws10_network.node[20].content_store 	decision_yes[20] 	91
scalar ws10_network.node[20].content_store 	decision_no[20] 	44496
scalar ws10_network.node[20].content_store 	decision_ratio[20] 	0.0020409536411959
scalar ws10_network.node[20].content_store 	correction_factor[20] 	0.0027225701061802
scalar ws10_network.node[20].content_store 	kappa[20] 	1
scalar ws10_network.node[21].core_layer 	interests[21] 	0
scalar ws10_network.node[21].core_layer 	data[21] 	0
scalar ws10_network.node[21].content_store 	p_hit[21] 	-nan
scalar ws10_network.node[21].content_store 	hits[21] 	0
scalar ws10_network.node[21].content_store 	misses[21] 	0
scalar ws10_network.node[21].content_store 	decision_yes[21] 	0
scalar ws10_network.node[21].content_store 	decision_no[21] 	0
scalar ws10_network.node[21].content_store 	decision_ratio[21] 	0
scalar ws10_network.node[21].content_store 	correction_factor[21] 	0.0027225701061802
scalar ws10_network.node[21].content_store 	kappa[21] 	1
scalar ws10_network.client[6] 	hdistance[6] 	2.7399564033928
scalar ws10_network.client[6] 	downloads[6] 	177078
scalar ws10_network.client[6] 	avg_time[6] 	0.010810152912
scalar ws10_network.client[6] 	interests_sent[6] 	179478
scalar ws10_network.client[10] 	hdistance[10] 	2.7680358684452
scalar ws10_network.client[10] 	downloads[10] 	179545
scalar ws10_network.client[10] 	avg_time[10] 	0.011029824197
scalar ws10_network.client[10] 	interests_sent[10] 	180211
scalar ws10_network.client[14] 	hdistance[14] 	2.1549194251358
scalar ws10_network.client[14] 	downloads[14] 	178964
scalar ws10_network.client[14] 	avg_time[14] 	0.007784460469
scalar ws10_network.client[14] 	interests_sent[14] 	180670
