version 2
run General-0-20141031-15:24:21-8794
attr D costaware0.01
attr F spr
attr R lru
attr a 1
attr configname General
attr csize 1e3
attr ctlg 1e5
attr datetime 20141031-15:24:21
attr experiment General
attr inifile omnetpp.ini
attr iterationvars "$rep=21, $lambda=100, $a=1, $ctlg=1e5, $F=spr, $ttl=10, $D=costaware0.01, $R=lru, $csize=1e3, $window=60, $variance=0.05, $mytime=1800, $kappa=1, $priceratiovalue=10, $pricebits=0"
attr iterationvars2 "$rep=21, $lambda=100, $a=1, $ctlg=1e5, $F=spr, $ttl=10, $D=costaware0.01, $R=lru, $csize=1e3, $window=60, $variance=0.05, $mytime=1800, $kappa=1, $priceratiovalue=10, $pricebits=0, $repetition=0"
attr kappa 1
attr lambda 100
attr measurement "$rep=21, $lambda=100, $a=1, $ctlg=1e5, $F=spr, $ttl=10, $D=costaware0.01, $R=lru, $csize=1e3, $window=60, $variance=0.05, $mytime=1800, $kappa=1, $priceratiovalue=10, $pricebits=0"
attr mytime 1800
attr network networks.ws${rep}_network
attr pricebits 0
attr priceratiovalue 10
attr processid 8794
attr rep 21
attr repetition 0
attr replication #0
attr resultdir results
attr runnumber 0
attr seedset 21
attr ttl 10
attr variance 0.05
attr window 60

scalar . 	a 	1
scalar . 	csize 	1e3
scalar . 	ctlg 	1e5
scalar . 	kappa 	1
scalar . 	lambda 	100
scalar . 	mytime 	1800
scalar . 	pricebits 	0
scalar . 	priceratiovalue 	10
scalar . 	rep 	21
scalar . 	ttl 	10
scalar . 	variance 	0.05
scalar . 	window 	60
scalar ws21_network.content_distribution 	repo-0 	4
scalar ws21_network.content_distribution 	repo-1 	6
scalar ws21_network.content_distribution 	repo-2 	17
scalar ws21_network.content_distribution 	client-0 	19
scalar ws21_network.content_distribution 	client-1 	21
scalar ws21_network.content_distribution 	client-2 	16
scalar ws21_network.content_distribution 	repo-0_card 	33236
scalar ws21_network.content_distribution 	repo-0_price 	10
scalar ws21_network.content_distribution 	repo-1_card 	33620
scalar ws21_network.content_distribution 	repo-1_price 	0
scalar ws21_network.content_distribution 	repo-2_card 	33144
scalar ws21_network.content_distribution 	repo-2_price 	1
scalar ws21_network.statistics 	repo_popularity[0] 	0.38565226540178
scalar ws21_network.statistics 	repo_popularity[1] 	0.27887605636544
scalar ws21_network.statistics 	repo_popularity[2] 	0.33547167823279
scalar ws21_network.statistics 	stabilization_time 	36060
scalar ws21_network.statistics 	p_hit 	0.10887591042597
scalar ws21_network.statistics 	interests 	80319.545454545
scalar ws21_network.statistics 	data 	55687.318181818
scalar ws21_network.statistics 	hdistance 	2.9345639221945
scalar ws21_network.statistics 	avg_time 	0.011816495618
scalar ws21_network.statistics 	downloads 	535199
scalar ws21_network.statistics 	total_cost 	1042977
scalar ws21_network.statistics 	total_replicas 	100000
scalar ws21_network.statistics 	inner_hit 	0.36538184862079
scalar ws21_network.statistics 	interests_sent 	541910
scalar ws21_network.node[0].core_layer 	interests[0] 	0
scalar ws21_network.node[0].core_layer 	data[0] 	0
scalar ws21_network.node[0].core_layer 	repo_int[0] 	339647
scalar ws21_network.node[0].content_store 	p_hit[0] 	-nan
scalar ws21_network.node[0].content_store 	hits[0] 	0
scalar ws21_network.node[0].content_store 	misses[0] 	0
scalar ws21_network.node[0].content_store 	decision_yes[0] 	0
scalar ws21_network.node[0].content_store 	decision_no[0] 	0
scalar ws21_network.node[0].content_store 	decision_ratio[0] 	0
scalar ws21_network.node[0].content_store 	correction_factor[0] 	0.0027225701061802
scalar ws21_network.node[0].content_store 	kappa[0] 	1
scalar ws21_network.node[1].core_layer 	interests[1] 	0
scalar ws21_network.node[1].core_layer 	data[1] 	0
scalar ws21_network.node[1].content_store 	p_hit[1] 	-nan
scalar ws21_network.node[1].content_store 	hits[1] 	0
scalar ws21_network.node[1].content_store 	misses[1] 	0
scalar ws21_network.node[1].content_store 	decision_yes[1] 	0
scalar ws21_network.node[1].content_store 	decision_no[1] 	0
scalar ws21_network.node[1].content_store 	decision_ratio[1] 	0
scalar ws21_network.node[1].content_store 	correction_factor[1] 	0.0027225701061802
scalar ws21_network.node[1].content_store 	kappa[1] 	1
scalar ws21_network.node[2].core_layer 	interests[2] 	0
scalar ws21_network.node[2].core_layer 	data[2] 	0
scalar ws21_network.node[2].content_store 	p_hit[2] 	-nan
scalar ws21_network.node[2].content_store 	hits[2] 	0
scalar ws21_network.node[2].content_store 	misses[2] 	0
scalar ws21_network.node[2].content_store 	decision_yes[2] 	0
scalar ws21_network.node[2].content_store 	decision_no[2] 	0
scalar ws21_network.node[2].content_store 	decision_ratio[2] 	0
scalar ws21_network.node[2].content_store 	correction_factor[2] 	0.0027225701061802
scalar ws21_network.node[2].content_store 	kappa[2] 	1
scalar ws21_network.node[3].core_layer 	interests[3] 	60391
scalar ws21_network.node[3].core_layer 	data[3] 	52615
scalar ws21_network.node[3].content_store 	p_hit[3] 	0.12876090808233
scalar ws21_network.node[3].content_store 	hits[3] 	7776
scalar ws21_network.node[3].content_store 	misses[3] 	52615
scalar ws21_network.node[3].content_store 	decision_yes[3] 	854
scalar ws21_network.node[3].content_store 	decision_no[3] 	51761
scalar ws21_network.node[3].content_store 	decision_ratio[3] 	0.016231112800532
scalar ws21_network.node[3].content_store 	correction_factor[3] 	0.0027225701061802
scalar ws21_network.node[3].content_store 	kappa[3] 	1
scalar ws21_network.node[4].core_layer 	interests[4] 	161001
scalar ws21_network.node[4].core_layer 	repo_load[4] 	94902
scalar ws21_network.node[4].core_layer 	data[4] 	0
scalar ws21_network.node[4].content_store 	p_hit[4] 	0.41055024502953
scalar ws21_network.node[4].content_store 	hits[4] 	66099
scalar ws21_network.node[4].content_store 	misses[4] 	94902
scalar ws21_network.node[4].content_store 	decision_yes[4] 	2524
scalar ws21_network.node[4].content_store 	decision_no[4] 	92378
scalar ws21_network.node[4].content_store 	decision_ratio[4] 	0.026595856778572
scalar ws21_network.node[4].content_store 	correction_factor[4] 	0.0027225701061802
scalar ws21_network.node[4].content_store 	kappa[4] 	1
scalar ws21_network.node[5].core_layer 	interests[5] 	100323
scalar ws21_network.node[5].core_layer 	data[5] 	100323
scalar ws21_network.node[5].content_store 	p_hit[5] 	0
scalar ws21_network.node[5].content_store 	hits[5] 	0
scalar ws21_network.node[5].content_store 	misses[5] 	100323
scalar ws21_network.node[5].content_store 	decision_yes[5] 	0
scalar ws21_network.node[5].content_store 	decision_no[5] 	100323
scalar ws21_network.node[5].content_store 	decision_ratio[5] 	0
scalar ws21_network.node[5].content_store 	correction_factor[5] 	0.0027225701061802
scalar ws21_network.node[5].content_store 	kappa[5] 	1
scalar ws21_network.node[6].core_layer 	interests[6] 	150788
scalar ws21_network.node[6].core_layer 	repo_load[6] 	150788
scalar ws21_network.node[6].core_layer 	data[6] 	0
scalar ws21_network.node[6].content_store 	p_hit[6] 	0
scalar ws21_network.node[6].content_store 	hits[6] 	0
scalar ws21_network.node[6].content_store 	misses[6] 	150788
scalar ws21_network.node[6].content_store 	decision_yes[6] 	0
scalar ws21_network.node[6].content_store 	decision_no[6] 	150788
scalar ws21_network.node[6].content_store 	decision_ratio[6] 	0
scalar ws21_network.node[6].content_store 	correction_factor[6] 	0.0027225701061802
scalar ws21_network.node[6].content_store 	kappa[6] 	1
scalar ws21_network.node[7].core_layer 	interests[7] 	0
scalar ws21_network.node[7].core_layer 	data[7] 	0
scalar ws21_network.node[7].content_store 	p_hit[7] 	-nan
scalar ws21_network.node[7].content_store 	hits[7] 	0
scalar ws21_network.node[7].content_store 	misses[7] 	0
scalar ws21_network.node[7].content_store 	decision_yes[7] 	0
scalar ws21_network.node[7].content_store 	decision_no[7] 	0
scalar ws21_network.node[7].content_store 	decision_ratio[7] 	0
scalar ws21_network.node[7].content_store 	correction_factor[7] 	0.0027225701061802
scalar ws21_network.node[7].content_store 	kappa[7] 	1
scalar ws21_network.node[8].core_layer 	interests[8] 	50466
scalar ws21_network.node[8].core_layer 	data[8] 	50465
scalar ws21_network.node[8].content_store 	p_hit[8] 	0
scalar ws21_network.node[8].content_store 	hits[8] 	0
scalar ws21_network.node[8].content_store 	misses[8] 	50466
scalar ws21_network.node[8].content_store 	decision_yes[8] 	0
scalar ws21_network.node[8].content_store 	decision_no[8] 	50465
scalar ws21_network.node[8].content_store 	decision_ratio[8] 	0
scalar ws21_network.node[8].content_store 	correction_factor[8] 	0.0027225701061802
scalar ws21_network.node[8].content_store 	kappa[8] 	1
scalar ws21_network.node[9].core_layer 	interests[9] 	0
scalar ws21_network.node[9].core_layer 	data[9] 	0
scalar ws21_network.node[9].content_store 	p_hit[9] 	-nan
scalar ws21_network.node[9].content_store 	hits[9] 	0
scalar ws21_network.node[9].content_store 	misses[9] 	0
scalar ws21_network.node[9].content_store 	decision_yes[9] 	0
scalar ws21_network.node[9].content_store 	decision_no[9] 	0
scalar ws21_network.node[9].content_store 	decision_ratio[9] 	0
scalar ws21_network.node[9].content_store 	correction_factor[9] 	0.0027225701061802
scalar ws21_network.node[9].content_store 	kappa[9] 	1
scalar ws21_network.node[10].core_layer 	interests[10] 	236476
scalar ws21_network.node[10].core_layer 	data[10] 	189485
scalar ws21_network.node[10].content_store 	p_hit[10] 	0.19788054601735
scalar ws21_network.node[10].content_store 	hits[10] 	46794
scalar ws21_network.node[10].content_store 	misses[10] 	189682
scalar ws21_network.node[10].content_store 	decision_yes[10] 	1121
scalar ws21_network.node[10].content_store 	decision_no[10] 	188364
scalar ws21_network.node[10].content_store 	decision_ratio[10] 	0.0059160355700979
scalar ws21_network.node[10].content_store 	correction_factor[10] 	0.0027225701061802
scalar ws21_network.node[10].content_store 	kappa[10] 	1
scalar ws21_network.node[11].core_layer 	interests[11] 	0
scalar ws21_network.node[11].core_layer 	data[11] 	0
scalar ws21_network.node[11].content_store 	p_hit[11] 	-nan
scalar ws21_network.node[11].content_store 	hits[11] 	0
scalar ws21_network.node[11].content_store 	misses[11] 	0
scalar ws21_network.node[11].content_store 	decision_yes[11] 	0
scalar ws21_network.node[11].content_store 	decision_no[11] 	0
scalar ws21_network.node[11].content_store 	decision_ratio[11] 	0
scalar ws21_network.node[11].content_store 	correction_factor[11] 	0.0027225701061802
scalar ws21_network.node[11].content_store 	kappa[11] 	1
scalar ws21_network.node[12].core_layer 	interests[12] 	0
scalar ws21_network.node[12].core_layer 	data[12] 	0
scalar ws21_network.node[12].content_store 	p_hit[12] 	-nan
scalar ws21_network.node[12].content_store 	hits[12] 	0
scalar ws21_network.node[12].content_store 	misses[12] 	0
scalar ws21_network.node[12].content_store 	decision_yes[12] 	0
scalar ws21_network.node[12].content_store 	decision_no[12] 	0
scalar ws21_network.node[12].content_store 	decision_ratio[12] 	0
scalar ws21_network.node[12].content_store 	correction_factor[12] 	0.0027225701061802
scalar ws21_network.node[12].content_store 	kappa[12] 	1
scalar ws21_network.node[13].core_layer 	interests[13] 	0
scalar ws21_network.node[13].core_layer 	data[13] 	0
scalar ws21_network.node[13].content_store 	p_hit[13] 	-nan
scalar ws21_network.node[13].content_store 	hits[13] 	0
scalar ws21_network.node[13].content_store 	misses[13] 	0
scalar ws21_network.node[13].content_store 	decision_yes[13] 	0
scalar ws21_network.node[13].content_store 	decision_no[13] 	0
scalar ws21_network.node[13].content_store 	decision_ratio[13] 	0
scalar ws21_network.node[13].content_store 	correction_factor[13] 	0.0027225701061802
scalar ws21_network.node[13].content_store 	kappa[13] 	1
scalar ws21_network.node[14].core_layer 	interests[14] 	118590
scalar ws21_network.node[14].core_layer 	data[14] 	108386
scalar ws21_network.node[14].content_store 	p_hit[14] 	0.086044354498693
scalar ws21_network.node[14].content_store 	hits[14] 	10204
scalar ws21_network.node[14].content_store 	misses[14] 	108386
scalar ws21_network.node[14].content_store 	decision_yes[14] 	1744
scalar ws21_network.node[14].content_store 	decision_no[14] 	106642
scalar ws21_network.node[14].content_store 	decision_ratio[14] 	0.016090639012419
scalar ws21_network.node[14].content_store 	correction_factor[14] 	0.0027225701061802
scalar ws21_network.node[14].content_store 	kappa[14] 	1
scalar ws21_network.node[15].core_layer 	interests[15] 	0
scalar ws21_network.node[15].core_layer 	data[15] 	0
scalar ws21_network.node[15].content_store 	p_hit[15] 	-nan
scalar ws21_network.node[15].content_store 	hits[15] 	0
scalar ws21_network.node[15].content_store 	misses[15] 	0
scalar ws21_network.node[15].content_store 	decision_yes[15] 	0
scalar ws21_network.node[15].content_store 	decision_no[15] 	0
scalar ws21_network.node[15].content_store 	decision_ratio[15] 	0
scalar ws21_network.node[15].content_store 	correction_factor[15] 	0.0027225701061802
scalar ws21_network.node[15].content_store 	kappa[15] 	1
scalar ws21_network.node[16].core_layer 	interests[16] 	347540
scalar ws21_network.node[16].core_layer 	data[16] 	333723
scalar ws21_network.node[16].content_store 	p_hit[16] 	0.026112102204063
scalar ws21_network.node[16].content_store 	hits[16] 	9075
scalar ws21_network.node[16].content_store 	misses[16] 	338465
scalar ws21_network.node[16].content_store 	decision_yes[16] 	1849
scalar ws21_network.node[16].content_store 	decision_no[16] 	331874
scalar ws21_network.node[16].content_store 	decision_ratio[16] 	0.0055405231284628
scalar ws21_network.node[16].content_store 	correction_factor[16] 	0.0027225701061802
scalar ws21_network.node[16].content_store 	kappa[16] 	1
scalar ws21_network.node[17].core_layer 	interests[17] 	129093
scalar ws21_network.node[17].core_layer 	repo_load[17] 	93957
scalar ws21_network.node[17].core_layer 	data[17] 	0
scalar ws21_network.node[17].content_store 	p_hit[17] 	0.27217587320769
scalar ws21_network.node[17].content_store 	hits[17] 	35136
scalar ws21_network.node[17].content_store 	misses[17] 	93957
scalar ws21_network.node[17].content_store 	decision_yes[17] 	228
scalar ws21_network.node[17].content_store 	decision_no[17] 	93729
scalar ws21_network.node[17].content_store 	decision_ratio[17] 	0.0024266419745203
scalar ws21_network.node[17].content_store 	correction_factor[17] 	0.0027225701061802
scalar ws21_network.node[17].content_store 	kappa[17] 	1
scalar ws21_network.node[18].core_layer 	interests[18] 	0
scalar ws21_network.node[18].core_layer 	data[18] 	0
scalar ws21_network.node[18].content_store 	p_hit[18] 	-nan
scalar ws21_network.node[18].content_store 	hits[18] 	0
scalar ws21_network.node[18].content_store 	misses[18] 	0
scalar ws21_network.node[18].content_store 	decision_yes[18] 	0
scalar ws21_network.node[18].content_store 	decision_no[18] 	0
scalar ws21_network.node[18].content_store 	decision_ratio[18] 	0
scalar ws21_network.node[18].content_store 	correction_factor[18] 	0.0027225701061802
scalar ws21_network.node[18].content_store 	kappa[18] 	1
scalar ws21_network.node[19].core_layer 	interests[19] 	180901
scalar ws21_network.node[19].core_layer 	data[19] 	167527
scalar ws21_network.node[19].content_store 	p_hit[19] 	0.060530345327002
scalar ws21_network.node[19].content_store 	hits[19] 	10950
scalar ws21_network.node[19].content_store 	misses[19] 	169951
scalar ws21_network.node[19].content_store 	decision_yes[19] 	931
scalar ws21_network.node[19].content_store 	decision_no[19] 	166596
scalar ws21_network.node[19].content_store 	decision_ratio[19] 	0.0055573131495222
scalar ws21_network.node[19].content_store 	correction_factor[19] 	0.0027225701061802
scalar ws21_network.node[19].content_store 	kappa[19] 	1
scalar ws21_network.node[20].core_layer 	interests[20] 	50466
scalar ws21_network.node[20].core_layer 	data[20] 	50465
scalar ws21_network.node[20].content_store 	p_hit[20] 	0
scalar ws21_network.node[20].content_store 	hits[20] 	0
scalar ws21_network.node[20].content_store 	misses[20] 	50466
scalar ws21_network.node[20].content_store 	decision_yes[20] 	0
scalar ws21_network.node[20].content_store 	decision_no[20] 	50465
scalar ws21_network.node[20].content_store 	decision_ratio[20] 	0
scalar ws21_network.node[20].content_store 	correction_factor[20] 	0.0027225701061802
scalar ws21_network.node[20].content_store 	kappa[20] 	1
scalar ws21_network.node[21].core_layer 	interests[21] 	180995
scalar ws21_network.node[21].core_layer 	data[21] 	172132
scalar ws21_network.node[21].content_store 	p_hit[21] 	0.035100417138595
scalar ws21_network.node[21].content_store 	hits[21] 	6353
scalar ws21_network.node[21].content_store 	misses[21] 	174642
scalar ws21_network.node[21].content_store 	decision_yes[21] 	937
scalar ws21_network.node[21].content_store 	decision_no[21] 	171195
scalar ws21_network.node[21].content_store 	decision_ratio[21] 	0.0054434968512537
scalar ws21_network.node[21].content_store 	correction_factor[21] 	0.0027225701061802
scalar ws21_network.node[21].content_store 	kappa[21] 	1
scalar ws21_network.client[16] 	hdistance[16] 	2.4660760672588
scalar ws21_network.client[16] 	downloads[16] 	178237
scalar ws21_network.client[16] 	avg_time[16] 	0.009392691328
scalar ws21_network.client[16] 	interests_sent[16] 	180014
scalar ws21_network.client[19] 	hdistance[19] 	3.2922617480123
scalar ws21_network.client[19] 	downloads[19] 	178477
scalar ws21_network.client[19] 	avg_time[19] 	0.013650300298
scalar ws21_network.client[19] 	interests_sent[19] 	180901
scalar ws21_network.client[21] 	hdistance[21] 	3.0453539513124
scalar ws21_network.client[21] 	downloads[21] 	178485
scalar ws21_network.client[21] 	avg_time[21] 	0.01240649523
scalar ws21_network.client[21] 	interests_sent[21] 	180995
