version 2
run General-75-20150405-21:02:22-28027
attr D costaware0.01
attr F nrr
attr R lru
attr a 1
attr configname General
attr csize 1e3
attr ctlg 1e5
attr datetime 20150405-21:02:22
attr experiment General
attr inifile omnetpp.ini
attr iterationvars "$rep=20, $net=cost_scenario, $lambda=100, $a=1, $ctlg=1e5, $F=nrr, $ttl=10, $D=costaware0.01, $R=lru, $csize=1e3, $window=60, $variance=0.05, $mytime=1800000, $kappa=1, $priceratiovalue=10, $splits=0.25_0.25_0.5, $pricebits=0"
attr iterationvars2 "$rep=20, $net=cost_scenario, $lambda=100, $a=1, $ctlg=1e5, $F=nrr, $ttl=10, $D=costaware0.01, $R=lru, $csize=1e3, $window=60, $variance=0.05, $mytime=1800000, $kappa=1, $priceratiovalue=10, $splits=0.25_0.25_0.5, $pricebits=0, $repetition=0"
attr kappa 1
attr lambda 100
attr measurement "$rep=20, $net=cost_scenario, $lambda=100, $a=1, $ctlg=1e5, $F=nrr, $ttl=10, $D=costaware0.01, $R=lru, $csize=1e3, $window=60, $variance=0.05, $mytime=1800000, $kappa=1, $priceratiovalue=10, $splits=0.25_0.25_0.5, $pricebits=0"
attr mytime 1800000
attr net cost_scenario
attr network networks.${net=cost_scenario}_network
attr pricebits 0
attr priceratiovalue 10
attr processid 28027
attr rep 20
attr repetition 0
attr replication #0
attr resultdir results
attr runnumber 75
attr seedset 20
attr splits 0.25_0.25_0.5
attr ttl 10
attr variance 0.05
attr window 60

scalar . 	a 	1
scalar . 	csize 	1e3
scalar . 	ctlg 	1e5
scalar . 	kappa 	1
scalar . 	lambda 	100
scalar . 	mytime 	1800000
scalar . 	pricebits 	0
scalar . 	priceratiovalue 	10
scalar . 	rep 	20
scalar . 	ttl 	10
scalar . 	variance 	0.05
scalar . 	window 	60
scalar cost_scenario_network.content_distribution 	repo-0 	1
scalar cost_scenario_network.content_distribution 	repo-1 	2
scalar cost_scenario_network.content_distribution 	repo-2 	3
scalar cost_scenario_network.content_distribution 	client-0 	0
scalar cost_scenario_network.content_distribution 	repo-0_card 	25081
scalar cost_scenario_network.content_distribution 	repo-0_price 	1
scalar cost_scenario_network.content_distribution 	repo-1_card 	24884
scalar cost_scenario_network.content_distribution 	repo-1_price 	10
scalar cost_scenario_network.content_distribution 	repo-2_card 	50035
scalar cost_scenario_network.content_distribution 	repo-2_price 	0
scalar cost_scenario_network.statistics 	repo_popularity[0] 	0.26611927275797
scalar cost_scenario_network.statistics 	repo_popularity[1] 	0.21800413409826
scalar cost_scenario_network.statistics 	repo_popularity[2] 	0.51587659314377
scalar cost_scenario_network.statistics 	stabilization_time 	4383.6
scalar cost_scenario_network.statistics 	p_hit 	0.18329484008034
scalar cost_scenario_network.statistics 	interests 	76070041
scalar cost_scenario_network.statistics 	data 	31063397.5
scalar cost_scenario_network.statistics 	hdistance 	1.3803916526239
scalar cost_scenario_network.statistics 	avg_time 	0
scalar cost_scenario_network.statistics 	downloads 	180026574
scalar cost_scenario_network.statistics 	total_cost 	162414566
scalar cost_scenario_network.statistics 	total_replicas 	100000
scalar cost_scenario_network.statistics 	inner_hit 	0.30980417368827
scalar cost_scenario_network.statistics 	interests_sent 	180026574
scalar cost_scenario_network.node[0].core_layer 	interests[0] 	180026574
scalar cost_scenario_network.node[0].core_layer 	data[0] 	124253590
scalar cost_scenario_network.node[0].core_layer 	repo_int[0] 	124253590
scalar cost_scenario_network.node[0].content_store 	p_hit[0] 	0.30980417368827
scalar cost_scenario_network.node[0].content_store 	hits[0] 	55772984
scalar cost_scenario_network.node[0].content_store 	misses[0] 	124253590
scalar cost_scenario_network.node[0].content_store 	decision_yes[0] 	309153
scalar cost_scenario_network.node[0].content_store 	decision_no[0] 	123944437
scalar cost_scenario_network.node[0].content_store 	decision_ratio[0] 	0.0024880810284838
scalar cost_scenario_network.node[0].content_store 	cache_value[0] 	18.69245762965
scalar cost_scenario_network.node[0].content_store 	average_price_of_cache[0] 	7.075
scalar cost_scenario_network.node[0].content_store 	correction_factor[0] 	0.0019047619047619
scalar cost_scenario_network.node[0].content_store 	kappa[0] 	1
scalar cost_scenario_network.node[1].core_layer 	interests[1] 	16819316
scalar cost_scenario_network.node[1].core_layer 	repo_load[1] 	16819316
scalar cost_scenario_network.node[1].core_layer 	data[1] 	0
scalar cost_scenario_network.node[1].content_store 	p_hit[1] 	0
scalar cost_scenario_network.node[1].content_store 	hits[1] 	0
scalar cost_scenario_network.node[1].content_store 	misses[1] 	16819316
scalar cost_scenario_network.node[1].content_store 	decision_yes[1] 	0
scalar cost_scenario_network.node[1].content_store 	decision_no[1] 	16819316
scalar cost_scenario_network.node[1].content_store 	decision_ratio[1] 	0
scalar cost_scenario_network.node[1].content_store 	cache_value[1] 	6.9532296285512e-310
scalar cost_scenario_network.node[1].content_store 	average_price_of_cache[1] 	-nan
scalar cost_scenario_network.node[1].content_store 	correction_factor[1] 	0.0019047619047619
scalar cost_scenario_network.node[1].content_store 	kappa[1] 	1
scalar cost_scenario_network.node[2].core_layer 	interests[2] 	14559525
scalar cost_scenario_network.node[2].core_layer 	repo_load[2] 	14559525
scalar cost_scenario_network.node[2].core_layer 	data[2] 	0
scalar cost_scenario_network.node[2].content_store 	p_hit[2] 	0
scalar cost_scenario_network.node[2].content_store 	hits[2] 	0
scalar cost_scenario_network.node[2].content_store 	misses[2] 	14559525
scalar cost_scenario_network.node[2].content_store 	decision_yes[2] 	0
scalar cost_scenario_network.node[2].content_store 	decision_no[2] 	14559525
scalar cost_scenario_network.node[2].content_store 	decision_ratio[2] 	0
scalar cost_scenario_network.node[2].content_store 	cache_value[2] 	6.9532296285512e-310
scalar cost_scenario_network.node[2].content_store 	average_price_of_cache[2] 	-nan
scalar cost_scenario_network.node[2].content_store 	correction_factor[2] 	0.0019047619047619
scalar cost_scenario_network.node[2].content_store 	kappa[2] 	1
scalar cost_scenario_network.node[3].core_layer 	interests[3] 	92874749
scalar cost_scenario_network.node[3].core_layer 	repo_load[3] 	92874749
scalar cost_scenario_network.node[3].core_layer 	data[3] 	0
scalar cost_scenario_network.node[3].content_store 	p_hit[3] 	0
scalar cost_scenario_network.node[3].content_store 	hits[3] 	0
scalar cost_scenario_network.node[3].content_store 	misses[3] 	92874749
scalar cost_scenario_network.node[3].content_store 	decision_yes[3] 	0
scalar cost_scenario_network.node[3].content_store 	decision_no[3] 	92874749
scalar cost_scenario_network.node[3].content_store 	decision_ratio[3] 	0
scalar cost_scenario_network.node[3].content_store 	cache_value[3] 	6.9532296285512e-310
scalar cost_scenario_network.node[3].content_store 	average_price_of_cache[3] 	-nan
scalar cost_scenario_network.node[3].content_store 	correction_factor[3] 	0.0019047619047619
scalar cost_scenario_network.node[3].content_store 	kappa[3] 	1
scalar cost_scenario_network.client[0] 	hdistance[0] 	1.3803916526239
scalar cost_scenario_network.client[0] 	downloads[0] 	180026574
scalar cost_scenario_network.client[0] 	avg_time[0] 	0
scalar cost_scenario_network.client[0] 	interests_sent[0] 	180026574
