version 2
run General-45-20150405-14:31:07-16669
attr D costaware0.01
attr F nrr
attr R lru
attr a 1
attr configname General
attr csize 1e3
attr ctlg 1e5
attr datetime 20150405-14:31:07
attr experiment General
attr inifile omnetpp.ini
attr iterationvars "$rep=14, $net=cost_scenario, $lambda=100, $a=1, $ctlg=1e5, $F=nrr, $ttl=10, $D=costaware0.01, $R=lru, $csize=1e3, $window=60, $variance=0.05, $mytime=1800000, $kappa=1, $priceratiovalue=10, $splits=0.25_0.25_0.5, $pricebits=0"
attr iterationvars2 "$rep=14, $net=cost_scenario, $lambda=100, $a=1, $ctlg=1e5, $F=nrr, $ttl=10, $D=costaware0.01, $R=lru, $csize=1e3, $window=60, $variance=0.05, $mytime=1800000, $kappa=1, $priceratiovalue=10, $splits=0.25_0.25_0.5, $pricebits=0, $repetition=0"
attr kappa 1
attr lambda 100
attr measurement "$rep=14, $net=cost_scenario, $lambda=100, $a=1, $ctlg=1e5, $F=nrr, $ttl=10, $D=costaware0.01, $R=lru, $csize=1e3, $window=60, $variance=0.05, $mytime=1800000, $kappa=1, $priceratiovalue=10, $splits=0.25_0.25_0.5, $pricebits=0"
attr mytime 1800000
attr net cost_scenario
attr network networks.${net=cost_scenario}_network
attr pricebits 0
attr priceratiovalue 10
attr processid 16669
attr rep 14
attr repetition 0
attr replication #0
attr resultdir results
attr runnumber 45
attr seedset 14
attr splits 0.25_0.25_0.5
attr ttl 10
attr variance 0.05
attr window 60

scalar . 	a 	1
scalar . 	csize 	1e3
scalar . 	ctlg 	1e5
scalar . 	kappa 	1
scalar . 	lambda 	100
scalar . 	mytime 	1800000
scalar . 	pricebits 	0
scalar . 	priceratiovalue 	10
scalar . 	rep 	14
scalar . 	ttl 	10
scalar . 	variance 	0.05
scalar . 	window 	60
scalar cost_scenario_network.content_distribution 	repo-0 	1
scalar cost_scenario_network.content_distribution 	repo-1 	2
scalar cost_scenario_network.content_distribution 	repo-2 	3
scalar cost_scenario_network.content_distribution 	client-0 	0
scalar cost_scenario_network.content_distribution 	repo-0_card 	24718
scalar cost_scenario_network.content_distribution 	repo-0_price 	10
scalar cost_scenario_network.content_distribution 	repo-1_card 	25165
scalar cost_scenario_network.content_distribution 	repo-1_price 	0
scalar cost_scenario_network.content_distribution 	repo-2_card 	50117
scalar cost_scenario_network.content_distribution 	repo-2_price 	1
scalar cost_scenario_network.statistics 	repo_popularity[0] 	0.27938770637585
scalar cost_scenario_network.statistics 	repo_popularity[1] 	0.27828256911364
scalar cost_scenario_network.statistics 	repo_popularity[2] 	0.44232972451052
scalar cost_scenario_network.statistics 	stabilization_time 	3724.1
scalar cost_scenario_network.statistics 	p_hit 	0.2801624253763
scalar cost_scenario_network.statistics 	interests 	70308595
scalar cost_scenario_network.statistics 	data 	25305384.25
scalar cost_scenario_network.statistics 	hdistance 	1.124603503985
scalar cost_scenario_network.statistics 	avg_time 	0
scalar cost_scenario_network.statistics 	downloads 	180012843
scalar cost_scenario_network.statistics 	total_cost 	190367382
scalar cost_scenario_network.statistics 	total_replicas 	100000
scalar cost_scenario_network.statistics 	inner_hit 	0.43769824800778
scalar cost_scenario_network.statistics 	interests_sent 	180012843
scalar cost_scenario_network.node[0].core_layer 	interests[0] 	180012843
scalar cost_scenario_network.node[0].core_layer 	data[0] 	101221537
scalar cost_scenario_network.node[0].core_layer 	repo_int[0] 	101221537
scalar cost_scenario_network.node[0].content_store 	p_hit[0] 	0.43769824800778
scalar cost_scenario_network.node[0].content_store 	hits[0] 	78791306
scalar cost_scenario_network.node[0].content_store 	misses[0] 	101221537
scalar cost_scenario_network.node[0].content_store 	decision_yes[0] 	362525
scalar cost_scenario_network.node[0].content_store 	decision_no[0] 	100859012
scalar cost_scenario_network.node[0].content_store 	decision_ratio[0] 	0.0035815006444725
scalar cost_scenario_network.node[0].content_store 	cache_value[0] 	26.399453209906
scalar cost_scenario_network.node[0].content_store 	average_price_of_cache[0] 	5.41
scalar cost_scenario_network.node[0].content_store 	correction_factor[0] 	0.0019047619047619
scalar cost_scenario_network.node[0].content_store 	kappa[0] 	1
scalar cost_scenario_network.node[1].core_layer 	interests[1] 	15472059
scalar cost_scenario_network.node[1].core_layer 	repo_load[1] 	15472059
scalar cost_scenario_network.node[1].core_layer 	data[1] 	0
scalar cost_scenario_network.node[1].content_store 	p_hit[1] 	0
scalar cost_scenario_network.node[1].content_store 	hits[1] 	0
scalar cost_scenario_network.node[1].content_store 	misses[1] 	15472059
scalar cost_scenario_network.node[1].content_store 	decision_yes[1] 	0
scalar cost_scenario_network.node[1].content_store 	decision_no[1] 	15472059
scalar cost_scenario_network.node[1].content_store 	decision_ratio[1] 	0
scalar cost_scenario_network.node[1].content_store 	cache_value[1] 	6.9531687962087e-310
scalar cost_scenario_network.node[1].content_store 	average_price_of_cache[1] 	-nan
scalar cost_scenario_network.node[1].content_store 	correction_factor[1] 	0.0019047619047619
scalar cost_scenario_network.node[1].content_store 	kappa[1] 	1
scalar cost_scenario_network.node[2].core_layer 	interests[2] 	50102686
scalar cost_scenario_network.node[2].core_layer 	repo_load[2] 	50102686
scalar cost_scenario_network.node[2].core_layer 	data[2] 	0
scalar cost_scenario_network.node[2].content_store 	p_hit[2] 	0
scalar cost_scenario_network.node[2].content_store 	hits[2] 	0
scalar cost_scenario_network.node[2].content_store 	misses[2] 	50102686
scalar cost_scenario_network.node[2].content_store 	decision_yes[2] 	0
scalar cost_scenario_network.node[2].content_store 	decision_no[2] 	50102686
scalar cost_scenario_network.node[2].content_store 	decision_ratio[2] 	0
scalar cost_scenario_network.node[2].content_store 	cache_value[2] 	6.9531687962087e-310
scalar cost_scenario_network.node[2].content_store 	average_price_of_cache[2] 	-nan
scalar cost_scenario_network.node[2].content_store 	correction_factor[2] 	0.0019047619047619
scalar cost_scenario_network.node[2].content_store 	kappa[2] 	1
scalar cost_scenario_network.node[3].core_layer 	interests[3] 	35646792
scalar cost_scenario_network.node[3].core_layer 	repo_load[3] 	35646792
scalar cost_scenario_network.node[3].core_layer 	data[3] 	0
scalar cost_scenario_network.node[3].content_store 	p_hit[3] 	0
scalar cost_scenario_network.node[3].content_store 	hits[3] 	0
scalar cost_scenario_network.node[3].content_store 	misses[3] 	35646792
scalar cost_scenario_network.node[3].content_store 	decision_yes[3] 	0
scalar cost_scenario_network.node[3].content_store 	decision_no[3] 	35646792
scalar cost_scenario_network.node[3].content_store 	decision_ratio[3] 	0
scalar cost_scenario_network.node[3].content_store 	cache_value[3] 	6.9531687962087e-310
scalar cost_scenario_network.node[3].content_store 	average_price_of_cache[3] 	-nan
scalar cost_scenario_network.node[3].content_store 	correction_factor[3] 	0.0019047619047619
scalar cost_scenario_network.node[3].content_store 	kappa[3] 	1
scalar cost_scenario_network.client[0] 	hdistance[0] 	1.124603503985
scalar cost_scenario_network.client[0] 	downloads[0] 	180012843
scalar cost_scenario_network.client[0] 	avg_time[0] 	0
scalar cost_scenario_network.client[0] 	interests_sent[0] 	180012843
