version 2
run General-0-20150723-15:29:48-31251
attr C 4118
attr D lce
attr F spr
attr R lru
attr a 1
attr brates 1
attr configname General
attr ctlg 1e6
attr datetime 20150723-15:29:48
attr experiment General
attr inifile omnetpp.ini
attr iterationvars "$net=abilene_nodelay, $rep=0, $lambda=100, $a=1, $ctlg=1e6, $brates=1, $F=spr, $ttl=1000, $D=lce, $R=lru, $C=4118, $window=60, $variance=0.05, $mytime=1800"
attr iterationvars2 "$net=abilene_nodelay, $rep=0, $lambda=100, $a=1, $ctlg=1e6, $brates=1, $F=spr, $ttl=1000, $D=lce, $R=lru, $C=4118, $window=60, $variance=0.05, $mytime=1800, $repetition=0"
attr lambda 100
attr measurement "$net=abilene_nodelay, $rep=0, $lambda=100, $a=1, $ctlg=1e6, $brates=1, $F=spr, $ttl=1000, $D=lce, $R=lru, $C=4118, $window=60, $variance=0.05, $mytime=1800"
attr mytime 1800
attr net abilene_nodelay
attr network networks.${net=abilene_nodelay}_network
attr processid 31251
attr rep 0
attr repetition 0
attr replication #0
attr resultdir results
attr runnumber 0
attr seedset 0
attr ttl 1000
attr variance 0.05
attr window 60

scalar . 	C 	4118
scalar . 	a 	1
scalar . 	brates 	1
scalar . 	ctlg 	1e6
scalar . 	lambda 	100
scalar . 	mytime 	1800
scalar . 	rep 	0
scalar . 	ttl 	1000
scalar . 	variance 	0.05
scalar . 	window 	60
scalar abilene_nodelay_network.content_distribution 	repo-0 	5
scalar abilene_nodelay_network.content_distribution 	repo-1 	8
scalar abilene_nodelay_network.content_distribution 	repo-2 	9
scalar abilene_nodelay_network.content_distribution 	repo-3 	0
scalar abilene_nodelay_network.content_distribution 	repo-4 	1
scalar abilene_nodelay_network.content_distribution 	repo-5 	7
scalar abilene_nodelay_network.content_distribution 	repo-6 	6
scalar abilene_nodelay_network.content_distribution 	repo-7 	2
scalar abilene_nodelay_network.content_distribution 	repo-8 	4
scalar abilene_nodelay_network.content_distribution 	repo-9 	10
scalar abilene_nodelay_network.content_distribution 	repo-10 	3
scalar abilene_nodelay_network.content_distribution 	client-0 	10
scalar abilene_nodelay_network.content_distribution 	client-1 	9
scalar abilene_nodelay_network.content_distribution 	client-2 	8
scalar abilene_nodelay_network.content_distribution 	client-3 	7
scalar abilene_nodelay_network.content_distribution 	client-4 	3
scalar abilene_nodelay_network.content_distribution 	client-5 	6
scalar abilene_nodelay_network.content_distribution 	client-6 	5
scalar abilene_nodelay_network.content_distribution 	client-7 	1
scalar abilene_nodelay_network.content_distribution 	client-8 	4
scalar abilene_nodelay_network.content_distribution 	client-9 	0
scalar abilene_nodelay_network.content_distribution 	client-10 	2
scalar abilene_nodelay_network.content_distribution 	repo-0_card 	90891
scalar abilene_nodelay_network.content_distribution 	repo-0_price 	0
scalar abilene_nodelay_network.content_distribution 	repo-1_card 	90362
scalar abilene_nodelay_network.content_distribution 	repo-1_price 	0
scalar abilene_nodelay_network.content_distribution 	repo-2_card 	90927
scalar abilene_nodelay_network.content_distribution 	repo-2_price 	0
scalar abilene_nodelay_network.content_distribution 	repo-3_card 	91098
scalar abilene_nodelay_network.content_distribution 	repo-3_price 	0
scalar abilene_nodelay_network.content_distribution 	repo-4_card 	91231
scalar abilene_nodelay_network.content_distribution 	repo-4_price 	0
scalar abilene_nodelay_network.content_distribution 	repo-5_card 	90932
scalar abilene_nodelay_network.content_distribution 	repo-5_price 	0
scalar abilene_nodelay_network.content_distribution 	repo-6_card 	90752
scalar abilene_nodelay_network.content_distribution 	repo-6_price 	0
scalar abilene_nodelay_network.content_distribution 	repo-7_card 	90980
scalar abilene_nodelay_network.content_distribution 	repo-7_price 	0
scalar abilene_nodelay_network.content_distribution 	repo-8_card 	90629
scalar abilene_nodelay_network.content_distribution 	repo-8_price 	0
scalar abilene_nodelay_network.content_distribution 	repo-9_card 	91219
scalar abilene_nodelay_network.content_distribution 	repo-9_price 	0
scalar abilene_nodelay_network.content_distribution 	repo-10_card 	90979
scalar abilene_nodelay_network.content_distribution 	repo-10_price 	0
scalar abilene_nodelay_network.statistics 	stabilization_time 	144.2
scalar abilene_nodelay_network.statistics 	p_hit 	0.23410104572477
scalar abilene_nodelay_network.statistics 	interests 	374694.45454545
scalar abilene_nodelay_network.statistics 	data 	194587.09090909
scalar abilene_nodelay_network.statistics 	hdistance 	1.5934584317777
scalar abilene_nodelay_network.statistics 	avg_time 	0
scalar abilene_nodelay_network.statistics 	downloads 	1981181
scalar abilene_nodelay_network.statistics 	total_cost 	0
scalar abilene_nodelay_network.statistics 	total_replicas 	1000000
scalar abilene_nodelay_network.statistics 	"representations_downloaded 1:" 	0
scalar abilene_nodelay_network.statistics 	"slots_per_representation 100:" 	0
scalar abilene_nodelay_network.statistics 	inner_hit 	0.48702263952663
scalar abilene_nodelay_network.statistics 	execution_time 	76
scalar abilene_nodelay_network.node[0].core_layer 	interests[0] 	252823
scalar abilene_nodelay_network.node[0].core_layer 	repo_load[0] 	86220
scalar abilene_nodelay_network.node[0].core_layer 	data[0] 	84176
scalar abilene_nodelay_network.node[0].core_layer 	slots_sent[face$o[1]->client[0]] 	18006700
scalar abilene_nodelay_network.node[0].core_layer 	slots_sent[face$o[2]->node[1]] 	5673400
scalar abilene_nodelay_network.node[0].core_layer 	slots_sent[face$o[3]->node[10]] 	1602200
scalar abilene_nodelay_network.node[0].content_store 	p_hit[0] 	0.32602650866416
scalar abilene_nodelay_network.node[0].content_store 	hits[0] 	82427
scalar abilene_nodelay_network.node[0].content_store 	misses[0] 	170396
scalar abilene_nodelay_network.node[0].content_store 	decision_yes[0] 	84176
scalar abilene_nodelay_network.node[0].content_store 	decision_no[0] 	86220
scalar abilene_nodelay_network.node[0].content_store 	decision_ratio[0] 	0.49400220662457
scalar abilene_nodelay_network.node[1].core_layer 	interests[1] 	436582
scalar abilene_nodelay_network.node[1].core_layer 	repo_load[1] 	96086
scalar abilene_nodelay_network.node[1].core_layer 	data[1] 	253429
scalar abilene_nodelay_network.node[1].core_layer 	slots_sent[face$o[1]->client[1]] 	17960700
scalar abilene_nodelay_network.node[1].core_layer 	slots_sent[face$o[2]->node[0]] 	6749200
scalar abilene_nodelay_network.node[1].core_layer 	slots_sent[face$o[3]->node[10]] 	5101700
scalar abilene_nodelay_network.node[1].core_layer 	slots_sent[face$o[4]->node[2]] 	13846600
scalar abilene_nodelay_network.node[1].content_store 	p_hit[1] 	0.19942874419926
scalar abilene_nodelay_network.node[1].content_store 	hits[1] 	87067
scalar abilene_nodelay_network.node[1].content_store 	misses[1] 	349515
scalar abilene_nodelay_network.node[1].content_store 	decision_yes[1] 	253429
scalar abilene_nodelay_network.node[1].content_store 	decision_no[1] 	96086
scalar abilene_nodelay_network.node[1].content_store 	decision_ratio[1] 	0.72508762141825
scalar abilene_nodelay_network.node[2].core_layer 	interests[2] 	577342
scalar abilene_nodelay_network.node[2].core_layer 	repo_load[2] 	103137
scalar abilene_nodelay_network.node[2].core_layer 	data[2] 	380470
scalar abilene_nodelay_network.node[2].core_layer 	slots_sent[face$o[1]->client[2]] 	18002900
scalar abilene_nodelay_network.node[2].core_layer 	slots_sent[face$o[2]->node[1]] 	14877800
scalar abilene_nodelay_network.node[2].core_layer 	slots_sent[face$o[3]->node[3]] 	17825800
scalar abilene_nodelay_network.node[2].core_layer 	slots_sent[face$o[4]->node[8]] 	7027700
scalar abilene_nodelay_network.node[2].content_store 	p_hit[2] 	0.16235610781824
scalar abilene_nodelay_network.node[2].content_store 	hits[2] 	93735
scalar abilene_nodelay_network.node[2].content_store 	misses[2] 	483607
scalar abilene_nodelay_network.node[2].content_store 	decision_yes[2] 	380470
scalar abilene_nodelay_network.node[2].content_store 	decision_no[2] 	103137
scalar abilene_nodelay_network.node[2].content_store 	decision_ratio[2] 	0.78673385620969
scalar abilene_nodelay_network.node[3].core_layer 	interests[3] 	545033
scalar abilene_nodelay_network.node[3].core_layer 	repo_load[3] 	94678
scalar abilene_nodelay_network.node[3].core_layer 	data[3] 	351127
scalar abilene_nodelay_network.node[3].core_layer 	slots_sent[face$o[1]->client[3]] 	18040500
scalar abilene_nodelay_network.node[3].core_layer 	slots_sent[face$o[2]->node[2]] 	17713100
scalar abilene_nodelay_network.node[3].core_layer 	slots_sent[face$o[3]->node[4]] 	10933100
scalar abilene_nodelay_network.node[3].core_layer 	slots_sent[face$o[4]->node[7]] 	7816600
scalar abilene_nodelay_network.node[3].content_store 	p_hit[3] 	0.18205870103278
scalar abilene_nodelay_network.node[3].content_store 	hits[3] 	99228
scalar abilene_nodelay_network.node[3].content_store 	misses[3] 	445805
scalar abilene_nodelay_network.node[3].content_store 	decision_yes[3] 	351127
scalar abilene_nodelay_network.node[3].content_store 	decision_no[3] 	94678
scalar abilene_nodelay_network.node[3].content_store 	decision_ratio[3] 	0.7876246340889
scalar abilene_nodelay_network.node[4].core_layer 	interests[4] 	336829
scalar abilene_nodelay_network.node[4].core_layer 	repo_load[4] 	87850
scalar abilene_nodelay_network.node[4].core_layer 	data[4] 	160706
scalar abilene_nodelay_network.node[4].core_layer 	slots_sent[face$o[1]->client[4]] 	17918900
scalar abilene_nodelay_network.node[4].core_layer 	slots_sent[face$o[2]->node[3]] 	9872600
scalar abilene_nodelay_network.node[4].core_layer 	slots_sent[face$o[3]->node[5]] 	5891400
scalar abilene_nodelay_network.node[4].content_store 	p_hit[4] 	0.26207066493681
scalar abilene_nodelay_network.node[4].content_store 	hits[4] 	88273
scalar abilene_nodelay_network.node[4].content_store 	misses[4] 	248556
scalar abilene_nodelay_network.node[4].content_store 	decision_yes[4] 	160706
scalar abilene_nodelay_network.node[4].content_store 	decision_no[4] 	87850
scalar abilene_nodelay_network.node[4].content_store 	decision_ratio[4] 	0.64655852202321
scalar abilene_nodelay_network.node[5].core_layer 	interests[5] 	269926
scalar abilene_nodelay_network.node[5].core_layer 	repo_load[5] 	97619
scalar abilene_nodelay_network.node[5].core_layer 	data[5] 	100152
scalar abilene_nodelay_network.node[5].core_layer 	slots_sent[face$o[1]->client[5]] 	18025100
scalar abilene_nodelay_network.node[5].core_layer 	slots_sent[face$o[2]->node[4]] 	5137500
scalar abilene_nodelay_network.node[5].core_layer 	slots_sent[face$o[3]->node[6]] 	3830000
scalar abilene_nodelay_network.node[5].content_store 	p_hit[5] 	0.26731400457903
scalar abilene_nodelay_network.node[5].content_store 	hits[5] 	72155
scalar abilene_nodelay_network.node[5].content_store 	misses[5] 	197771
scalar abilene_nodelay_network.node[5].content_store 	decision_yes[5] 	100152
scalar abilene_nodelay_network.node[5].content_store 	decision_no[5] 	97619
scalar abilene_nodelay_network.node[5].content_store 	decision_ratio[5] 	0.5064038711439
scalar abilene_nodelay_network.node[6].core_layer 	interests[6] 	302849
scalar abilene_nodelay_network.node[6].core_layer 	repo_load[6] 	86297
scalar abilene_nodelay_network.node[6].core_layer 	data[6] 	130878
scalar abilene_nodelay_network.node[6].core_layer 	slots_sent[face$o[1]->client[6]] 	18018500
scalar abilene_nodelay_network.node[6].core_layer 	slots_sent[face$o[2]->node[5]] 	4123800
scalar abilene_nodelay_network.node[6].core_layer 	slots_sent[face$o[3]->node[7]] 	8142600
scalar abilene_nodelay_network.node[6].content_store 	p_hit[6] 	0.28289345515422
scalar abilene_nodelay_network.node[6].content_store 	hits[6] 	85674
scalar abilene_nodelay_network.node[6].content_store 	misses[6] 	217175
scalar abilene_nodelay_network.node[6].content_store 	decision_yes[6] 	130878
scalar abilene_nodelay_network.node[6].content_store 	decision_no[6] 	86297
scalar abilene_nodelay_network.node[6].content_store 	decision_ratio[6] 	0.60263842523311
scalar abilene_nodelay_network.node[7].core_layer 	interests[7] 	412211
scalar abilene_nodelay_network.node[7].core_layer 	repo_load[7] 	93363
scalar abilene_nodelay_network.node[7].core_layer 	data[7] 	223454
scalar abilene_nodelay_network.node[7].core_layer 	slots_sent[face$o[1]->client[7]] 	18019300
scalar abilene_nodelay_network.node[7].core_layer 	slots_sent[face$o[2]->node[3]] 	7414300
scalar abilene_nodelay_network.node[7].core_layer 	slots_sent[face$o[3]->node[6]] 	9257800
scalar abilene_nodelay_network.node[7].core_layer 	slots_sent[face$o[4]->node[8]] 	6529700
scalar abilene_nodelay_network.node[7].content_store 	p_hit[7] 	0.23142031629432
scalar abilene_nodelay_network.node[7].content_store 	hits[7] 	95394
scalar abilene_nodelay_network.node[7].content_store 	misses[7] 	316817
scalar abilene_nodelay_network.node[7].content_store 	decision_yes[7] 	223454
scalar abilene_nodelay_network.node[7].content_store 	decision_no[7] 	93363
scalar abilene_nodelay_network.node[7].content_store 	decision_ratio[7] 	0.70530937418131
scalar abilene_nodelay_network.node[8].core_layer 	interests[8] 	393525
scalar abilene_nodelay_network.node[8].core_layer 	repo_load[8] 	88533
scalar abilene_nodelay_network.node[8].core_layer 	data[8] 	209404
scalar abilene_nodelay_network.node[8].core_layer 	slots_sent[face$o[1]->client[8]] 	18050800
scalar abilene_nodelay_network.node[8].core_layer 	slots_sent[face$o[2]->node[2]] 	6487300
scalar abilene_nodelay_network.node[8].core_layer 	slots_sent[face$o[3]->node[7]] 	6386200
scalar abilene_nodelay_network.node[8].core_layer 	slots_sent[face$o[4]->node[9]] 	8428200
scalar abilene_nodelay_network.node[8].content_store 	p_hit[8] 	0.24290197573216
scalar abilene_nodelay_network.node[8].content_store 	hits[8] 	95588
scalar abilene_nodelay_network.node[8].content_store 	misses[8] 	297937
scalar abilene_nodelay_network.node[8].content_store 	decision_yes[8] 	209404
scalar abilene_nodelay_network.node[8].content_store 	decision_no[8] 	88533
scalar abilene_nodelay_network.node[8].content_store 	decision_ratio[8] 	0.70284657494705
scalar abilene_nodelay_network.node[9].core_layer 	interests[9] 	303100
scalar abilene_nodelay_network.node[9].core_layer 	repo_load[9] 	88044
scalar abilene_nodelay_network.node[9].core_layer 	data[9] 	131101
scalar abilene_nodelay_network.node[9].core_layer 	slots_sent[face$o[1]->client[9]] 	18074800
scalar abilene_nodelay_network.node[9].core_layer 	slots_sent[face$o[2]->node[10]] 	4852200
scalar abilene_nodelay_network.node[9].core_layer 	slots_sent[face$o[3]->node[8]] 	7383000
scalar abilene_nodelay_network.node[9].content_store 	p_hit[9] 	0.27698779280765
scalar abilene_nodelay_network.node[9].content_store 	hits[9] 	83955
scalar abilene_nodelay_network.node[9].content_store 	misses[9] 	219145
scalar abilene_nodelay_network.node[9].content_store 	decision_yes[9] 	131101
scalar abilene_nodelay_network.node[9].content_store 	decision_no[9] 	88044
scalar abilene_nodelay_network.node[9].content_store 	decision_ratio[9] 	0.59823860914007
scalar abilene_nodelay_network.node[10].core_layer 	interests[10] 	291419
scalar abilene_nodelay_network.node[10].core_layer 	repo_load[10] 	94474
scalar abilene_nodelay_network.node[10].core_layer 	data[10] 	115561
scalar abilene_nodelay_network.node[10].core_layer 	slots_sent[face$o[1]->client[10]] 	17999900
scalar abilene_nodelay_network.node[10].core_layer 	slots_sent[face$o[2]->node[0]] 	1668400
scalar abilene_nodelay_network.node[10].core_layer 	slots_sent[face$o[3]->node[1]] 	4791700
scalar abilene_nodelay_network.node[10].core_layer 	slots_sent[face$o[4]->node[9]] 	4681900
scalar abilene_nodelay_network.node[10].content_store 	p_hit[10] 	0.27926799556652
scalar abilene_nodelay_network.node[10].content_store 	hits[10] 	81384
scalar abilene_nodelay_network.node[10].content_store 	misses[10] 	210035
scalar abilene_nodelay_network.node[10].content_store 	decision_yes[10] 	115561
scalar abilene_nodelay_network.node[10].content_store 	decision_no[10] 	94474
scalar abilene_nodelay_network.node[10].content_store 	decision_ratio[10] 	0.55019877639441
scalar abilene_nodelay_network.client[0] 	hdistance[0].real 	1.7626938861646
scalar abilene_nodelay_network.client[0] 	downloads[0].real 	180067
scalar abilene_nodelay_network.client[0] 	avg_time[0].real 	0
scalar abilene_nodelay_network.client[1] 	hdistance[1].real 	1.6065520831593
scalar abilene_nodelay_network.client[1] 	downloads[1].real 	179607
scalar abilene_nodelay_network.client[1] 	avg_time[1].real 	0
scalar abilene_nodelay_network.client[2] 	hdistance[2].real 	1.4480722550256
scalar abilene_nodelay_network.client[2] 	downloads[2].real 	180029
scalar abilene_nodelay_network.client[2] 	avg_time[2].real 	0
scalar abilene_nodelay_network.client[3] 	hdistance[3].real 	1.4580194562235
scalar abilene_nodelay_network.client[3] 	downloads[3].real 	180405
scalar abilene_nodelay_network.client[3] 	avg_time[3].real 	0
scalar abilene_nodelay_network.client[4] 	hdistance[4].real 	1.6596219634018
scalar abilene_nodelay_network.client[4] 	downloads[4].real 	179189
scalar abilene_nodelay_network.client[4] 	avg_time[4].real 	0
scalar abilene_nodelay_network.client[5] 	hdistance[5].real 	1.8347193635542
scalar abilene_nodelay_network.client[5] 	downloads[5].real 	180251
scalar abilene_nodelay_network.client[5] 	avg_time[5].real 	0
scalar abilene_nodelay_network.client[6] 	hdistance[6].real 	1.6782196076255
scalar abilene_nodelay_network.client[6] 	downloads[6].real 	180185
scalar abilene_nodelay_network.client[6] 	avg_time[6].real 	0
scalar abilene_nodelay_network.client[7] 	hdistance[7].real 	1.4525481012026
scalar abilene_nodelay_network.client[7] 	downloads[7].real 	180193
scalar abilene_nodelay_network.client[7] 	avg_time[7].real 	0
scalar abilene_nodelay_network.client[8] 	hdistance[8].real 	1.399461519711
scalar abilene_nodelay_network.client[8] 	downloads[8].real 	180508
scalar abilene_nodelay_network.client[8] 	avg_time[8].real 	0
scalar abilene_nodelay_network.client[9] 	hdistance[9].real 	1.5741197689601
scalar abilene_nodelay_network.client[9] 	downloads[9].real 	180748
scalar abilene_nodelay_network.client[9] 	avg_time[9].real 	0
scalar abilene_nodelay_network.client[10] 	hdistance[10].real 	1.6540147445263
scalar abilene_nodelay_network.client[10] 	downloads[10].real 	179999
scalar abilene_nodelay_network.client[10] 	avg_time[10].real 	0
