version 2
run General-2-20150722-13:23:51-32206
attr C 1e4
attr D lce
attr F spr
attr R lru_repr
attr a 1
attr brates 0.3_0.7_1.5_2.5_3.5
attr configname General
attr ctlg 1e6
attr datetime 20150722-13:23:51
attr experiment General
attr inifile omnetpp.ini
attr iterationvars "$net=barabasi_100nodes, $rep=2, $lambda=100, $a=1, $ctlg=1e6, $brates=0.3_0.7_1.5_2.5_3.5, $F=spr, $ttl=1000, $D=lce, $R=lru_repr, $C=1e4, $window=60, $variance=0.05, $mytime=1800"
attr iterationvars2 "$net=barabasi_100nodes, $rep=2, $lambda=100, $a=1, $ctlg=1e6, $brates=0.3_0.7_1.5_2.5_3.5, $F=spr, $ttl=1000, $D=lce, $R=lru_repr, $C=1e4, $window=60, $variance=0.05, $mytime=1800, $repetition=0"
attr lambda 100
attr measurement "$net=barabasi_100nodes, $rep=2, $lambda=100, $a=1, $ctlg=1e6, $brates=0.3_0.7_1.5_2.5_3.5, $F=spr, $ttl=1000, $D=lce, $R=lru_repr, $C=1e4, $window=60, $variance=0.05, $mytime=1800"
attr mytime 1800
attr net barabasi_100nodes
attr network networks.${net=barabasi_100nodes}_network
attr processid 32206
attr rep 2
attr repetition 0
attr replication #0
attr resultdir results
attr runnumber 2
attr seedset 2
attr ttl 1000
attr variance 0.05
attr window 60

scalar . 	C 	1e4
scalar . 	a 	1
scalar . 	ctlg 	1e6
scalar . 	lambda 	100
scalar . 	mytime 	1800
scalar . 	rep 	2
scalar . 	ttl 	1000
scalar . 	variance 	0.05
scalar . 	window 	60
scalar barabasi_100nodes_network.content_distribution 	repo-0 	47
scalar barabasi_100nodes_network.content_distribution 	repo-1 	68
scalar barabasi_100nodes_network.content_distribution 	repo-2 	25
scalar barabasi_100nodes_network.content_distribution 	repo-3 	67
scalar barabasi_100nodes_network.content_distribution 	repo-4 	83
scalar barabasi_100nodes_network.content_distribution 	repo-5 	23
scalar barabasi_100nodes_network.content_distribution 	repo-6 	92
scalar barabasi_100nodes_network.content_distribution 	repo-7 	57
scalar barabasi_100nodes_network.content_distribution 	repo-8 	14
scalar barabasi_100nodes_network.content_distribution 	repo-9 	72
scalar barabasi_100nodes_network.content_distribution 	repo-10 	89
scalar barabasi_100nodes_network.content_distribution 	repo-11 	42
scalar barabasi_100nodes_network.content_distribution 	repo-12 	90
scalar barabasi_100nodes_network.content_distribution 	repo-13 	8
scalar barabasi_100nodes_network.content_distribution 	repo-14 	39
scalar barabasi_100nodes_network.content_distribution 	repo-15 	48
scalar barabasi_100nodes_network.content_distribution 	repo-16 	7
scalar barabasi_100nodes_network.content_distribution 	repo-17 	44
scalar barabasi_100nodes_network.content_distribution 	repo-18 	0
scalar barabasi_100nodes_network.content_distribution 	repo-19 	75
scalar barabasi_100nodes_network.content_distribution 	repo-20 	55
scalar barabasi_100nodes_network.content_distribution 	repo-21 	6
scalar barabasi_100nodes_network.content_distribution 	repo-22 	19
scalar barabasi_100nodes_network.content_distribution 	repo-23 	60
scalar barabasi_100nodes_network.content_distribution 	repo-24 	63
scalar barabasi_100nodes_network.content_distribution 	repo-25 	69
scalar barabasi_100nodes_network.content_distribution 	repo-26 	56
scalar barabasi_100nodes_network.content_distribution 	repo-27 	24
scalar barabasi_100nodes_network.content_distribution 	repo-28 	53
scalar barabasi_100nodes_network.content_distribution 	repo-29 	61
scalar barabasi_100nodes_network.content_distribution 	repo-30 	64
scalar barabasi_100nodes_network.content_distribution 	repo-31 	34
scalar barabasi_100nodes_network.content_distribution 	repo-32 	73
scalar barabasi_100nodes_network.content_distribution 	repo-33 	78
scalar barabasi_100nodes_network.content_distribution 	repo-34 	38
scalar barabasi_100nodes_network.content_distribution 	repo-35 	4
scalar barabasi_100nodes_network.content_distribution 	repo-36 	9
scalar barabasi_100nodes_network.content_distribution 	repo-37 	87
scalar barabasi_100nodes_network.content_distribution 	repo-38 	99
scalar barabasi_100nodes_network.content_distribution 	repo-39 	1
scalar barabasi_100nodes_network.content_distribution 	repo-40 	16
scalar barabasi_100nodes_network.content_distribution 	repo-41 	31
scalar barabasi_100nodes_network.content_distribution 	repo-42 	93
scalar barabasi_100nodes_network.content_distribution 	repo-43 	71
scalar barabasi_100nodes_network.content_distribution 	repo-44 	10
scalar barabasi_100nodes_network.content_distribution 	repo-45 	35
scalar barabasi_100nodes_network.content_distribution 	repo-46 	96
scalar barabasi_100nodes_network.content_distribution 	repo-47 	21
scalar barabasi_100nodes_network.content_distribution 	repo-48 	97
scalar barabasi_100nodes_network.content_distribution 	repo-49 	91
scalar barabasi_100nodes_network.content_distribution 	repo-50 	27
scalar barabasi_100nodes_network.content_distribution 	repo-51 	33
scalar barabasi_100nodes_network.content_distribution 	repo-52 	30
scalar barabasi_100nodes_network.content_distribution 	repo-53 	81
scalar barabasi_100nodes_network.content_distribution 	repo-54 	2
scalar barabasi_100nodes_network.content_distribution 	repo-55 	50
scalar barabasi_100nodes_network.content_distribution 	repo-56 	18
scalar barabasi_100nodes_network.content_distribution 	repo-57 	58
scalar barabasi_100nodes_network.content_distribution 	repo-58 	12
scalar barabasi_100nodes_network.content_distribution 	repo-59 	76
scalar barabasi_100nodes_network.content_distribution 	repo-60 	20
scalar barabasi_100nodes_network.content_distribution 	repo-61 	15
scalar barabasi_100nodes_network.content_distribution 	repo-62 	59
scalar barabasi_100nodes_network.content_distribution 	repo-63 	43
scalar barabasi_100nodes_network.content_distribution 	repo-64 	54
scalar barabasi_100nodes_network.content_distribution 	repo-65 	77
scalar barabasi_100nodes_network.content_distribution 	repo-66 	3
scalar barabasi_100nodes_network.content_distribution 	repo-67 	29
scalar barabasi_100nodes_network.content_distribution 	repo-68 	79
scalar barabasi_100nodes_network.content_distribution 	repo-69 	70
scalar barabasi_100nodes_network.content_distribution 	repo-70 	52
scalar barabasi_100nodes_network.content_distribution 	repo-71 	41
scalar barabasi_100nodes_network.content_distribution 	repo-72 	26
scalar barabasi_100nodes_network.content_distribution 	repo-73 	62
scalar barabasi_100nodes_network.content_distribution 	repo-74 	86
scalar barabasi_100nodes_network.content_distribution 	repo-75 	98
scalar barabasi_100nodes_network.content_distribution 	repo-76 	17
scalar barabasi_100nodes_network.content_distribution 	repo-77 	5
scalar barabasi_100nodes_network.content_distribution 	repo-78 	49
scalar barabasi_100nodes_network.content_distribution 	repo-79 	37
scalar barabasi_100nodes_network.content_distribution 	repo-80 	85
scalar barabasi_100nodes_network.content_distribution 	repo-81 	51
scalar barabasi_100nodes_network.content_distribution 	repo-82 	36
scalar barabasi_100nodes_network.content_distribution 	repo-83 	82
scalar barabasi_100nodes_network.content_distribution 	repo-84 	28
scalar barabasi_100nodes_network.content_distribution 	repo-85 	32
scalar barabasi_100nodes_network.content_distribution 	repo-86 	95
scalar barabasi_100nodes_network.content_distribution 	repo-87 	45
scalar barabasi_100nodes_network.content_distribution 	repo-88 	40
scalar barabasi_100nodes_network.content_distribution 	repo-89 	13
scalar barabasi_100nodes_network.content_distribution 	repo-90 	80
scalar barabasi_100nodes_network.content_distribution 	repo-91 	46
scalar barabasi_100nodes_network.content_distribution 	repo-92 	11
scalar barabasi_100nodes_network.content_distribution 	repo-93 	94
scalar barabasi_100nodes_network.content_distribution 	repo-94 	22
scalar barabasi_100nodes_network.content_distribution 	repo-95 	66
scalar barabasi_100nodes_network.content_distribution 	repo-96 	88
scalar barabasi_100nodes_network.content_distribution 	repo-97 	84
scalar barabasi_100nodes_network.content_distribution 	repo-98 	74
scalar barabasi_100nodes_network.content_distribution 	repo-99 	65
scalar barabasi_100nodes_network.content_distribution 	client-0 	85
scalar barabasi_100nodes_network.content_distribution 	client-1 	89
scalar barabasi_100nodes_network.content_distribution 	client-2 	52
scalar barabasi_100nodes_network.content_distribution 	client-3 	21
scalar barabasi_100nodes_network.content_distribution 	client-4 	37
scalar barabasi_100nodes_network.content_distribution 	client-5 	25
scalar barabasi_100nodes_network.content_distribution 	client-6 	68
scalar barabasi_100nodes_network.content_distribution 	client-7 	29
scalar barabasi_100nodes_network.content_distribution 	client-8 	22
scalar barabasi_100nodes_network.content_distribution 	client-9 	32
scalar barabasi_100nodes_network.content_distribution 	client-10 	63
scalar barabasi_100nodes_network.content_distribution 	client-11 	86
scalar barabasi_100nodes_network.content_distribution 	client-12 	98
scalar barabasi_100nodes_network.content_distribution 	client-13 	10
scalar barabasi_100nodes_network.content_distribution 	client-14 	77
scalar barabasi_100nodes_network.content_distribution 	client-15 	35
scalar barabasi_100nodes_network.content_distribution 	client-16 	33
scalar barabasi_100nodes_network.content_distribution 	client-17 	38
scalar barabasi_100nodes_network.content_distribution 	client-18 	80
scalar barabasi_100nodes_network.content_distribution 	client-19 	23
scalar barabasi_100nodes_network.content_distribution 	client-20 	0
scalar barabasi_100nodes_network.content_distribution 	client-21 	82
scalar barabasi_100nodes_network.content_distribution 	client-22 	73
scalar barabasi_100nodes_network.content_distribution 	client-23 	6
scalar barabasi_100nodes_network.content_distribution 	client-24 	17
scalar barabasi_100nodes_network.content_distribution 	client-25 	2
scalar barabasi_100nodes_network.content_distribution 	client-26 	14
scalar barabasi_100nodes_network.content_distribution 	client-27 	46
scalar barabasi_100nodes_network.content_distribution 	client-28 	66
scalar barabasi_100nodes_network.content_distribution 	client-29 	31
scalar barabasi_100nodes_network.content_distribution 	client-30 	8
scalar barabasi_100nodes_network.content_distribution 	client-31 	92
scalar barabasi_100nodes_network.content_distribution 	client-32 	41
scalar barabasi_100nodes_network.content_distribution 	client-33 	26
scalar barabasi_100nodes_network.content_distribution 	client-34 	18
scalar barabasi_100nodes_network.content_distribution 	client-35 	84
scalar barabasi_100nodes_network.content_distribution 	client-36 	55
scalar barabasi_100nodes_network.content_distribution 	client-37 	28
scalar barabasi_100nodes_network.content_distribution 	client-38 	79
scalar barabasi_100nodes_network.content_distribution 	client-39 	45
scalar barabasi_100nodes_network.content_distribution 	client-40 	97
scalar barabasi_100nodes_network.content_distribution 	client-41 	64
scalar barabasi_100nodes_network.content_distribution 	client-42 	1
scalar barabasi_100nodes_network.content_distribution 	client-43 	24
scalar barabasi_100nodes_network.content_distribution 	client-44 	58
scalar barabasi_100nodes_network.content_distribution 	client-45 	36
scalar barabasi_100nodes_network.content_distribution 	client-46 	42
scalar barabasi_100nodes_network.content_distribution 	client-47 	47
scalar barabasi_100nodes_network.content_distribution 	client-48 	43
scalar barabasi_100nodes_network.content_distribution 	client-49 	72
scalar barabasi_100nodes_network.content_distribution 	client-50 	87
scalar barabasi_100nodes_network.content_distribution 	client-51 	51
scalar barabasi_100nodes_network.content_distribution 	client-52 	27
scalar barabasi_100nodes_network.content_distribution 	client-53 	78
scalar barabasi_100nodes_network.content_distribution 	client-54 	61
scalar barabasi_100nodes_network.content_distribution 	client-55 	30
scalar barabasi_100nodes_network.content_distribution 	client-56 	76
scalar barabasi_100nodes_network.content_distribution 	client-57 	57
scalar barabasi_100nodes_network.content_distribution 	client-58 	59
scalar barabasi_100nodes_network.content_distribution 	client-59 	88
scalar barabasi_100nodes_network.content_distribution 	client-60 	50
scalar barabasi_100nodes_network.content_distribution 	client-61 	81
scalar barabasi_100nodes_network.content_distribution 	client-62 	4
scalar barabasi_100nodes_network.content_distribution 	client-63 	93
scalar barabasi_100nodes_network.content_distribution 	client-64 	75
scalar barabasi_100nodes_network.content_distribution 	client-65 	95
scalar barabasi_100nodes_network.content_distribution 	client-66 	3
scalar barabasi_100nodes_network.content_distribution 	client-67 	69
scalar barabasi_100nodes_network.content_distribution 	client-68 	62
scalar barabasi_100nodes_network.content_distribution 	client-69 	60
scalar barabasi_100nodes_network.content_distribution 	client-70 	44
scalar barabasi_100nodes_network.content_distribution 	client-71 	13
scalar barabasi_100nodes_network.content_distribution 	client-72 	96
scalar barabasi_100nodes_network.content_distribution 	client-73 	54
scalar barabasi_100nodes_network.content_distribution 	client-74 	65
scalar barabasi_100nodes_network.content_distribution 	client-75 	48
scalar barabasi_100nodes_network.content_distribution 	client-76 	94
scalar barabasi_100nodes_network.content_distribution 	client-77 	91
scalar barabasi_100nodes_network.content_distribution 	client-78 	74
scalar barabasi_100nodes_network.content_distribution 	client-79 	49
scalar barabasi_100nodes_network.content_distribution 	client-80 	40
scalar barabasi_100nodes_network.content_distribution 	client-81 	53
scalar barabasi_100nodes_network.content_distribution 	client-82 	71
scalar barabasi_100nodes_network.content_distribution 	client-83 	39
scalar barabasi_100nodes_network.content_distribution 	client-84 	56
scalar barabasi_100nodes_network.content_distribution 	client-85 	67
scalar barabasi_100nodes_network.content_distribution 	client-86 	16
scalar barabasi_100nodes_network.content_distribution 	client-87 	70
scalar barabasi_100nodes_network.content_distribution 	client-88 	7
scalar barabasi_100nodes_network.content_distribution 	client-89 	99
scalar barabasi_100nodes_network.content_distribution 	client-90 	90
scalar barabasi_100nodes_network.content_distribution 	client-91 	5
scalar barabasi_100nodes_network.content_distribution 	client-92 	83
scalar barabasi_100nodes_network.content_distribution 	client-93 	20
scalar barabasi_100nodes_network.content_distribution 	client-94 	11
scalar barabasi_100nodes_network.content_distribution 	client-95 	9
scalar barabasi_100nodes_network.content_distribution 	client-96 	19
scalar barabasi_100nodes_network.content_distribution 	client-97 	12
scalar barabasi_100nodes_network.content_distribution 	client-98 	15
scalar barabasi_100nodes_network.content_distribution 	client-99 	34
scalar barabasi_100nodes_network.content_distribution 	repo-0_card 	250135
scalar barabasi_100nodes_network.content_distribution 	repo-0_price 	0
scalar barabasi_100nodes_network.content_distribution 	repo-1_card 	249891
scalar barabasi_100nodes_network.content_distribution 	repo-1_price 	0
scalar barabasi_100nodes_network.content_distribution 	repo-2_card 	249908
scalar barabasi_100nodes_network.content_distribution 	repo-2_price 	0
scalar barabasi_100nodes_network.content_distribution 	repo-3_card 	250066
scalar barabasi_100nodes_network.content_distribution 	repo-3_price 	0
scalar barabasi_100nodes_network.content_distribution 	repo-4_card 	0
scalar barabasi_100nodes_network.content_distribution 	repo-4_price 	0
scalar barabasi_100nodes_network.content_distribution 	repo-5_card 	0
scalar barabasi_100nodes_network.content_distribution 	repo-5_price 	0
scalar barabasi_100nodes_network.content_distribution 	repo-6_card 	0
scalar barabasi_100nodes_network.content_distribution 	repo-6_price 	0
scalar barabasi_100nodes_network.content_distribution 	repo-7_card 	0
scalar barabasi_100nodes_network.content_distribution 	repo-7_price 	0
scalar barabasi_100nodes_network.content_distribution 	repo-8_card 	0
scalar barabasi_100nodes_network.content_distribution 	repo-8_price 	0
scalar barabasi_100nodes_network.content_distribution 	repo-9_card 	0
scalar barabasi_100nodes_network.content_distribution 	repo-9_price 	0
scalar barabasi_100nodes_network.content_distribution 	repo-10_card 	0
scalar barabasi_100nodes_network.content_distribution 	repo-10_price 	0
scalar barabasi_100nodes_network.content_distribution 	repo-11_card 	0
scalar barabasi_100nodes_network.content_distribution 	repo-11_price 	0
scalar barabasi_100nodes_network.content_distribution 	repo-12_card 	0
scalar barabasi_100nodes_network.content_distribution 	repo-12_price 	0
scalar barabasi_100nodes_network.content_distribution 	repo-13_card 	0
scalar barabasi_100nodes_network.content_distribution 	repo-13_price 	0
scalar barabasi_100nodes_network.content_distribution 	repo-14_card 	0
scalar barabasi_100nodes_network.content_distribution 	repo-14_price 	0
scalar barabasi_100nodes_network.content_distribution 	repo-15_card 	0
scalar barabasi_100nodes_network.content_distribution 	repo-15_price 	0
scalar barabasi_100nodes_network.content_distribution 	repo-16_card 	0
scalar barabasi_100nodes_network.content_distribution 	repo-16_price 	0
scalar barabasi_100nodes_network.content_distribution 	repo-17_card 	0
scalar barabasi_100nodes_network.content_distribution 	repo-17_price 	0
scalar barabasi_100nodes_network.content_distribution 	repo-18_card 	0
scalar barabasi_100nodes_network.content_distribution 	repo-18_price 	0
scalar barabasi_100nodes_network.content_distribution 	repo-19_card 	0
scalar barabasi_100nodes_network.content_distribution 	repo-19_price 	0
scalar barabasi_100nodes_network.content_distribution 	repo-20_card 	0
scalar barabasi_100nodes_network.content_distribution 	repo-20_price 	0
scalar barabasi_100nodes_network.content_distribution 	repo-21_card 	0
scalar barabasi_100nodes_network.content_distribution 	repo-21_price 	0
scalar barabasi_100nodes_network.content_distribution 	repo-22_card 	0
scalar barabasi_100nodes_network.content_distribution 	repo-22_price 	0
scalar barabasi_100nodes_network.content_distribution 	repo-23_card 	0
scalar barabasi_100nodes_network.content_distribution 	repo-23_price 	0
scalar barabasi_100nodes_network.content_distribution 	repo-24_card 	0
scalar barabasi_100nodes_network.content_distribution 	repo-24_price 	0
scalar barabasi_100nodes_network.content_distribution 	repo-25_card 	0
scalar barabasi_100nodes_network.content_distribution 	repo-25_price 	0
scalar barabasi_100nodes_network.content_distribution 	repo-26_card 	0
scalar barabasi_100nodes_network.content_distribution 	repo-26_price 	0
scalar barabasi_100nodes_network.content_distribution 	repo-27_card 	0
scalar barabasi_100nodes_network.content_distribution 	repo-27_price 	0
scalar barabasi_100nodes_network.content_distribution 	repo-28_card 	0
scalar barabasi_100nodes_network.content_distribution 	repo-28_price 	0
scalar barabasi_100nodes_network.content_distribution 	repo-29_card 	0
scalar barabasi_100nodes_network.content_distribution 	repo-29_price 	0
scalar barabasi_100nodes_network.content_distribution 	repo-30_card 	0
scalar barabasi_100nodes_network.content_distribution 	repo-30_price 	0
scalar barabasi_100nodes_network.content_distribution 	repo-31_card 	0
scalar barabasi_100nodes_network.content_distribution 	repo-31_price 	0
scalar barabasi_100nodes_network.content_distribution 	repo-32_card 	0
scalar barabasi_100nodes_network.content_distribution 	repo-32_price 	0
scalar barabasi_100nodes_network.content_distribution 	repo-33_card 	0
scalar barabasi_100nodes_network.content_distribution 	repo-33_price 	0
scalar barabasi_100nodes_network.content_distribution 	repo-34_card 	0
scalar barabasi_100nodes_network.content_distribution 	repo-34_price 	0
scalar barabasi_100nodes_network.content_distribution 	repo-35_card 	0
scalar barabasi_100nodes_network.content_distribution 	repo-35_price 	0
scalar barabasi_100nodes_network.content_distribution 	repo-36_card 	0
scalar barabasi_100nodes_network.content_distribution 	repo-36_price 	0
scalar barabasi_100nodes_network.content_distribution 	repo-37_card 	0
scalar barabasi_100nodes_network.content_distribution 	repo-37_price 	0
scalar barabasi_100nodes_network.content_distribution 	repo-38_card 	0
scalar barabasi_100nodes_network.content_distribution 	repo-38_price 	0
scalar barabasi_100nodes_network.content_distribution 	repo-39_card 	0
scalar barabasi_100nodes_network.content_distribution 	repo-39_price 	0
scalar barabasi_100nodes_network.content_distribution 	repo-40_card 	0
scalar barabasi_100nodes_network.content_distribution 	repo-40_price 	0
scalar barabasi_100nodes_network.content_distribution 	repo-41_card 	0
scalar barabasi_100nodes_network.content_distribution 	repo-41_price 	0
scalar barabasi_100nodes_network.content_distribution 	repo-42_card 	0
scalar barabasi_100nodes_network.content_distribution 	repo-42_price 	0
scalar barabasi_100nodes_network.content_distribution 	repo-43_card 	0
scalar barabasi_100nodes_network.content_distribution 	repo-43_price 	0
scalar barabasi_100nodes_network.content_distribution 	repo-44_card 	0
scalar barabasi_100nodes_network.content_distribution 	repo-44_price 	0
scalar barabasi_100nodes_network.content_distribution 	repo-45_card 	0
scalar barabasi_100nodes_network.content_distribution 	repo-45_price 	0
scalar barabasi_100nodes_network.content_distribution 	repo-46_card 	0
scalar barabasi_100nodes_network.content_distribution 	repo-46_price 	0
scalar barabasi_100nodes_network.content_distribution 	repo-47_card 	0
scalar barabasi_100nodes_network.content_distribution 	repo-47_price 	0
scalar barabasi_100nodes_network.content_distribution 	repo-48_card 	0
scalar barabasi_100nodes_network.content_distribution 	repo-48_price 	0
scalar barabasi_100nodes_network.content_distribution 	repo-49_card 	0
scalar barabasi_100nodes_network.content_distribution 	repo-49_price 	0
scalar barabasi_100nodes_network.content_distribution 	repo-50_card 	0
scalar barabasi_100nodes_network.content_distribution 	repo-50_price 	0
scalar barabasi_100nodes_network.content_distribution 	repo-51_card 	0
scalar barabasi_100nodes_network.content_distribution 	repo-51_price 	0
scalar barabasi_100nodes_network.content_distribution 	repo-52_card 	0
scalar barabasi_100nodes_network.content_distribution 	repo-52_price 	0
scalar barabasi_100nodes_network.content_distribution 	repo-53_card 	0
scalar barabasi_100nodes_network.content_distribution 	repo-53_price 	0
scalar barabasi_100nodes_network.content_distribution 	repo-54_card 	0
scalar barabasi_100nodes_network.content_distribution 	repo-54_price 	0
scalar barabasi_100nodes_network.content_distribution 	repo-55_card 	0
scalar barabasi_100nodes_network.content_distribution 	repo-55_price 	0
scalar barabasi_100nodes_network.content_distribution 	repo-56_card 	0
scalar barabasi_100nodes_network.content_distribution 	repo-56_price 	0
scalar barabasi_100nodes_network.content_distribution 	repo-57_card 	0
scalar barabasi_100nodes_network.content_distribution 	repo-57_price 	0
scalar barabasi_100nodes_network.content_distribution 	repo-58_card 	0
scalar barabasi_100nodes_network.content_distribution 	repo-58_price 	0
scalar barabasi_100nodes_network.content_distribution 	repo-59_card 	0
scalar barabasi_100nodes_network.content_distribution 	repo-59_price 	0
scalar barabasi_100nodes_network.content_distribution 	repo-60_card 	0
scalar barabasi_100nodes_network.content_distribution 	repo-60_price 	0
scalar barabasi_100nodes_network.content_distribution 	repo-61_card 	0
scalar barabasi_100nodes_network.content_distribution 	repo-61_price 	0
scalar barabasi_100nodes_network.content_distribution 	repo-62_card 	0
scalar barabasi_100nodes_network.content_distribution 	repo-62_price 	0
scalar barabasi_100nodes_network.content_distribution 	repo-63_card 	0
scalar barabasi_100nodes_network.content_distribution 	repo-63_price 	0
scalar barabasi_100nodes_network.content_distribution 	repo-64_card 	0
scalar barabasi_100nodes_network.content_distribution 	repo-64_price 	0
scalar barabasi_100nodes_network.content_distribution 	repo-65_card 	0
scalar barabasi_100nodes_network.content_distribution 	repo-65_price 	0
scalar barabasi_100nodes_network.content_distribution 	repo-66_card 	0
scalar barabasi_100nodes_network.content_distribution 	repo-66_price 	0
scalar barabasi_100nodes_network.content_distribution 	repo-67_card 	0
scalar barabasi_100nodes_network.content_distribution 	repo-67_price 	0
scalar barabasi_100nodes_network.content_distribution 	repo-68_card 	0
scalar barabasi_100nodes_network.content_distribution 	repo-68_price 	0
scalar barabasi_100nodes_network.content_distribution 	repo-69_card 	0
scalar barabasi_100nodes_network.content_distribution 	repo-69_price 	0
scalar barabasi_100nodes_network.content_distribution 	repo-70_card 	0
scalar barabasi_100nodes_network.content_distribution 	repo-70_price 	0
scalar barabasi_100nodes_network.content_distribution 	repo-71_card 	0
scalar barabasi_100nodes_network.content_distribution 	repo-71_price 	0
scalar barabasi_100nodes_network.content_distribution 	repo-72_card 	0
scalar barabasi_100nodes_network.content_distribution 	repo-72_price 	0
scalar barabasi_100nodes_network.content_distribution 	repo-73_card 	0
scalar barabasi_100nodes_network.content_distribution 	repo-73_price 	0
scalar barabasi_100nodes_network.content_distribution 	repo-74_card 	0
scalar barabasi_100nodes_network.content_distribution 	repo-74_price 	0
scalar barabasi_100nodes_network.content_distribution 	repo-75_card 	0
scalar barabasi_100nodes_network.content_distribution 	repo-75_price 	0
scalar barabasi_100nodes_network.content_distribution 	repo-76_card 	0
scalar barabasi_100nodes_network.content_distribution 	repo-76_price 	0
scalar barabasi_100nodes_network.content_distribution 	repo-77_card 	0
scalar barabasi_100nodes_network.content_distribution 	repo-77_price 	0
scalar barabasi_100nodes_network.content_distribution 	repo-78_card 	0
scalar barabasi_100nodes_network.content_distribution 	repo-78_price 	0
scalar barabasi_100nodes_network.content_distribution 	repo-79_card 	0
scalar barabasi_100nodes_network.content_distribution 	repo-79_price 	0
scalar barabasi_100nodes_network.content_distribution 	repo-80_card 	0
scalar barabasi_100nodes_network.content_distribution 	repo-80_price 	0
scalar barabasi_100nodes_network.content_distribution 	repo-81_card 	0
scalar barabasi_100nodes_network.content_distribution 	repo-81_price 	0
scalar barabasi_100nodes_network.content_distribution 	repo-82_card 	0
scalar barabasi_100nodes_network.content_distribution 	repo-82_price 	0
scalar barabasi_100nodes_network.content_distribution 	repo-83_card 	0
scalar barabasi_100nodes_network.content_distribution 	repo-83_price 	0
scalar barabasi_100nodes_network.content_distribution 	repo-84_card 	0
scalar barabasi_100nodes_network.content_distribution 	repo-84_price 	0
scalar barabasi_100nodes_network.content_distribution 	repo-85_card 	0
scalar barabasi_100nodes_network.content_distribution 	repo-85_price 	0
scalar barabasi_100nodes_network.content_distribution 	repo-86_card 	0
scalar barabasi_100nodes_network.content_distribution 	repo-86_price 	0
scalar barabasi_100nodes_network.content_distribution 	repo-87_card 	0
scalar barabasi_100nodes_network.content_distribution 	repo-87_price 	0
scalar barabasi_100nodes_network.content_distribution 	repo-88_card 	0
scalar barabasi_100nodes_network.content_distribution 	repo-88_price 	0
scalar barabasi_100nodes_network.content_distribution 	repo-89_card 	0
scalar barabasi_100nodes_network.content_distribution 	repo-89_price 	0
scalar barabasi_100nodes_network.content_distribution 	repo-90_card 	0
scalar barabasi_100nodes_network.content_distribution 	repo-90_price 	0
scalar barabasi_100nodes_network.content_distribution 	repo-91_card 	0
scalar barabasi_100nodes_network.content_distribution 	repo-91_price 	0
scalar barabasi_100nodes_network.content_distribution 	repo-92_card 	0
scalar barabasi_100nodes_network.content_distribution 	repo-92_price 	0
scalar barabasi_100nodes_network.content_distribution 	repo-93_card 	0
scalar barabasi_100nodes_network.content_distribution 	repo-93_price 	0
scalar barabasi_100nodes_network.content_distribution 	repo-94_card 	0
scalar barabasi_100nodes_network.content_distribution 	repo-94_price 	0
scalar barabasi_100nodes_network.content_distribution 	repo-95_card 	0
scalar barabasi_100nodes_network.content_distribution 	repo-95_price 	0
scalar barabasi_100nodes_network.content_distribution 	repo-96_card 	0
scalar barabasi_100nodes_network.content_distribution 	repo-96_price 	0
scalar barabasi_100nodes_network.content_distribution 	repo-97_card 	0
scalar barabasi_100nodes_network.content_distribution 	repo-97_price 	0
scalar barabasi_100nodes_network.content_distribution 	repo-98_card 	0
scalar barabasi_100nodes_network.content_distribution 	repo-98_price 	0
scalar barabasi_100nodes_network.content_distribution 	repo-99_card 	0
scalar barabasi_100nodes_network.content_distribution 	repo-99_price 	0
scalar barabasi_100nodes_network.statistics 	stabilization_time 	36060
scalar barabasi_100nodes_network.statistics 	p_hit 	0.32147144693351
scalar barabasi_100nodes_network.statistics 	interests 	458320.3
scalar barabasi_100nodes_network.statistics 	data 	244537.17
scalar barabasi_100nodes_network.statistics 	hdistance 	1.2500426858581
scalar barabasi_100nodes_network.statistics 	avg_time 	0
scalar barabasi_100nodes_network.statistics 	downloads 	18004564
scalar barabasi_100nodes_network.statistics 	total_cost 	0
scalar barabasi_100nodes_network.statistics 	total_replicas 	1000000
scalar barabasi_100nodes_network.statistics 	"representations_downloaded 0.318451:0.0332568:0.0242096:0.0233922:0.60069:" 	0
scalar barabasi_100nodes_network.statistics 	"slots_per_representation 100:233:500:833:1167:" 	0
scalar barabasi_100nodes_network.statistics 	inner_hit 	0.63094779745847
scalar barabasi_100nodes_network.statistics 	execution_time 	18284
scalar barabasi_100nodes_network.node[0].core_layer 	interests[0] 	2012839
scalar barabasi_100nodes_network.node[0].core_layer 	data[0] 	1601557
scalar barabasi_100nodes_network.node[0].core_layer 	slots_sent[face$o[1]->client[0]] 	133058181
scalar barabasi_100nodes_network.node[0].core_layer 	slots_sent[face$o[2]->node[1]] 	25263175
scalar barabasi_100nodes_network.node[0].core_layer 	slots_sent[face$o[3]->node[2]] 	0
scalar barabasi_100nodes_network.node[0].core_layer 	slots_sent[face$o[4]->node[5]] 	89892504
scalar barabasi_100nodes_network.node[0].core_layer 	slots_sent[face$o[5]->node[10]] 	47652325
scalar barabasi_100nodes_network.node[0].core_layer 	slots_sent[face$o[6]->node[11]] 	25414817
scalar barabasi_100nodes_network.node[0].core_layer 	slots_sent[face$o[7]->node[15]] 	69257086
scalar barabasi_100nodes_network.node[0].core_layer 	slots_sent[face$o[8]->node[21]] 	69586468
scalar barabasi_100nodes_network.node[0].core_layer 	slots_sent[face$o[9]->node[22]] 	25247445
scalar barabasi_100nodes_network.node[0].core_layer 	slots_sent[face$o[10]->node[28]] 	25000114
scalar barabasi_100nodes_network.node[0].core_layer 	slots_sent[face$o[11]->node[37]] 	25363672
scalar barabasi_100nodes_network.node[0].core_layer 	slots_sent[face$o[12]->node[44]] 	25285863
scalar barabasi_100nodes_network.node[0].core_layer 	slots_sent[face$o[13]->node[58]] 	47803918
scalar barabasi_100nodes_network.node[0].core_layer 	slots_sent[face$o[14]->node[73]] 	32735699
scalar barabasi_100nodes_network.node[0].core_layer 	slots_sent[face$o[15]->node[74]] 	17996202
scalar barabasi_100nodes_network.node[0].core_layer 	slots_sent[face$o[16]->node[93]] 	25333162
scalar barabasi_100nodes_network.node[0].content_store 	p_hit[0] 	0.20432930800725
scalar barabasi_100nodes_network.node[0].content_store 	hits[0] 	411282
scalar barabasi_100nodes_network.node[0].content_store 	misses[0] 	1601557
scalar barabasi_100nodes_network.node[0].content_store 	decision_yes[0] 	1601557
scalar barabasi_100nodes_network.node[0].content_store 	decision_no[0] 	0
scalar barabasi_100nodes_network.node[0].content_store 	decision_ratio[0] 	1
scalar barabasi_100nodes_network.node[0].content_store 	"representation_breakdown[0] 25200:4720:2158:1709:4753:" 	0
scalar barabasi_100nodes_network.node[0].proactive_component 	hdistance[0].proactive_component 	2.4774332703175
scalar barabasi_100nodes_network.node[0].proactive_component 	downloads[0].proactive_component 	4076222
scalar barabasi_100nodes_network.node[0].proactive_component 	avg_time[0].proactive_component 	0
scalar barabasi_100nodes_network.node[1].core_layer 	interests[1] 	191472
scalar barabasi_100nodes_network.node[1].core_layer 	data[1] 	73306
scalar barabasi_100nodes_network.node[1].core_layer 	slots_sent[face$o[1]->client[1]] 	144622614
scalar barabasi_100nodes_network.node[1].core_layer 	slots_sent[face$o[2]->node[0]] 	0
scalar barabasi_100nodes_network.node[1].content_store 	p_hit[1] 	0.61714506559706
scalar barabasi_100nodes_network.node[1].content_store 	hits[1] 	118166
scalar barabasi_100nodes_network.node[1].content_store 	misses[1] 	73306
scalar barabasi_100nodes_network.node[1].content_store 	decision_yes[1] 	73306
scalar barabasi_100nodes_network.node[1].content_store 	decision_no[1] 	0
scalar barabasi_100nodes_network.node[1].content_store 	decision_ratio[1] 	1
scalar barabasi_100nodes_network.node[1].content_store 	"representation_breakdown[1] 21764:2951:1598:1343:5902:" 	0
scalar barabasi_100nodes_network.node[1].proactive_component 	hdistance[1].proactive_component 	3.1492645836796
scalar barabasi_100nodes_network.node[1].proactive_component 	downloads[1].proactive_component 	240680
scalar barabasi_100nodes_network.node[1].proactive_component 	avg_time[1].proactive_component 	0
scalar barabasi_100nodes_network.node[2].core_layer 	interests[2] 	6804844
scalar barabasi_100nodes_network.node[2].core_layer 	data[2] 	5681066
scalar barabasi_100nodes_network.node[2].core_layer 	slots_sent[face$o[1]->client[2]] 	125513936
scalar barabasi_100nodes_network.node[2].core_layer 	slots_sent[face$o[2]->node[0]] 	489218332
scalar barabasi_100nodes_network.node[2].core_layer 	slots_sent[face$o[3]->node[3]] 	34604101
scalar barabasi_100nodes_network.node[2].core_layer 	slots_sent[face$o[4]->node[4]] 	86550070
scalar barabasi_100nodes_network.node[2].core_layer 	slots_sent[face$o[5]->node[6]] 	25294266
scalar barabasi_100nodes_network.node[2].core_layer 	slots_sent[face$o[6]->node[7]] 	224660751
scalar barabasi_100nodes_network.node[2].core_layer 	slots_sent[face$o[7]->node[8]] 	173486916
scalar barabasi_100nodes_network.node[2].core_layer 	slots_sent[face$o[8]->node[13]] 	78140777
scalar barabasi_100nodes_network.node[2].core_layer 	slots_sent[face$o[9]->node[16]] 	152296835
scalar barabasi_100nodes_network.node[2].core_layer 	slots_sent[face$o[10]->node[18]] 	82191150
scalar barabasi_100nodes_network.node[2].core_layer 	slots_sent[face$o[11]->node[25]] 	34432557
scalar barabasi_100nodes_network.node[2].core_layer 	slots_sent[face$o[12]->node[26]] 	77911315
scalar barabasi_100nodes_network.node[2].core_layer 	slots_sent[face$o[13]->node[29]] 	17057233
scalar barabasi_100nodes_network.node[2].core_layer 	slots_sent[face$o[14]->node[32]] 	69132532
scalar barabasi_100nodes_network.node[2].core_layer 	slots_sent[face$o[15]->node[33]] 	25447904
scalar barabasi_100nodes_network.node[2].core_layer 	slots_sent[face$o[16]->node[34]] 	25188935
scalar barabasi_100nodes_network.node[2].core_layer 	slots_sent[face$o[17]->node[36]] 	47989100
scalar barabasi_100nodes_network.node[2].core_layer 	slots_sent[face$o[18]->node[41]] 	142011828
scalar barabasi_100nodes_network.node[2].core_layer 	slots_sent[face$o[19]->node[45]] 	25340928
scalar barabasi_100nodes_network.node[2].core_layer 	slots_sent[face$o[20]->node[59]] 	25215575
scalar barabasi_100nodes_network.node[2].core_layer 	slots_sent[face$o[21]->node[62]] 	56563922
scalar barabasi_100nodes_network.node[2].core_layer 	slots_sent[face$o[22]->node[79]] 	25189305
scalar barabasi_100nodes_network.node[2].content_store 	p_hit[2] 	0.16514382989529
scalar barabasi_100nodes_network.node[2].content_store 	hits[2] 	1123778
scalar barabasi_100nodes_network.node[2].content_store 	misses[2] 	5681066
scalar barabasi_100nodes_network.node[2].content_store 	decision_yes[2] 	5681066
scalar barabasi_100nodes_network.node[2].content_store 	decision_no[2] 	0
scalar barabasi_100nodes_network.node[2].content_store 	decision_ratio[2] 	1
scalar barabasi_100nodes_network.node[2].content_store 	"representation_breakdown[2] 25870:5264:2503:1923:4287:" 	0
scalar barabasi_100nodes_network.node[2].proactive_component 	hdistance[2].proactive_component 	2.238570779261
scalar barabasi_100nodes_network.node[2].proactive_component 	downloads[2].proactive_component 	14217286
scalar barabasi_100nodes_network.node[2].proactive_component 	avg_time[2].proactive_component 	0
scalar barabasi_100nodes_network.node[3].core_layer 	interests[3] 	267618
scalar barabasi_100nodes_network.node[3].core_layer 	repo_load[3] 	61578
scalar barabasi_100nodes_network.node[3].core_layer 	data[3] 	101218
scalar barabasi_100nodes_network.node[3].core_layer 	slots_sent[face$o[1]->client[3]] 	119520461
scalar barabasi_100nodes_network.node[3].core_layer 	slots_sent[face$o[2]->node[2]] 	0
scalar barabasi_100nodes_network.node[3].core_layer 	slots_sent[face$o[3]->node[52]] 	24729736
scalar barabasi_100nodes_network.node[3].content_store 	p_hit[3] 	0.39168516318035
scalar barabasi_100nodes_network.node[3].content_store 	hits[3] 	104822
scalar barabasi_100nodes_network.node[3].content_store 	misses[3] 	162796
scalar barabasi_100nodes_network.node[3].content_store 	decision_yes[3] 	101218
scalar barabasi_100nodes_network.node[3].content_store 	decision_no[3] 	61578
scalar barabasi_100nodes_network.node[3].content_store 	decision_ratio[3] 	0.62174746308263
scalar barabasi_100nodes_network.node[3].content_store 	"representation_breakdown[3] 21756:3278:1756:1393:5734:" 	0
scalar barabasi_100nodes_network.node[3].proactive_component 	hdistance[3].proactive_component 	2.9313782970974
scalar barabasi_100nodes_network.node[3].proactive_component 	downloads[3].proactive_component 	289952
scalar barabasi_100nodes_network.node[3].proactive_component 	avg_time[3].proactive_component 	0
scalar barabasi_100nodes_network.node[4].core_layer 	interests[4] 	564700
scalar barabasi_100nodes_network.node[4].core_layer 	repo_load[4] 	137317
scalar barabasi_100nodes_network.node[4].core_layer 	data[4] 	278308
scalar barabasi_100nodes_network.node[4].core_layer 	slots_sent[face$o[1]->client[4]] 	119430789
scalar barabasi_100nodes_network.node[4].core_layer 	slots_sent[face$o[2]->node[2]] 	0
scalar barabasi_100nodes_network.node[4].core_layer 	slots_sent[face$o[3]->node[27]] 	44951788
scalar barabasi_100nodes_network.node[4].core_layer 	slots_sent[face$o[4]->node[30]] 	39209873
scalar barabasi_100nodes_network.node[4].core_layer 	slots_sent[face$o[5]->node[85]] 	23887434
scalar barabasi_100nodes_network.node[4].content_store 	p_hit[4] 	0.26398972905968
scalar barabasi_100nodes_network.node[4].content_store 	hits[4] 	149075
scalar barabasi_100nodes_network.node[4].content_store 	misses[4] 	415625
scalar barabasi_100nodes_network.node[4].content_store 	decision_yes[4] 	278308
scalar barabasi_100nodes_network.node[4].content_store 	decision_no[4] 	137317
scalar barabasi_100nodes_network.node[4].content_store 	decision_ratio[4] 	0.66961323308271
scalar barabasi_100nodes_network.node[4].content_store 	"representation_breakdown[4] 24634:4397:1935:1579:5055:" 	0
scalar barabasi_100nodes_network.node[4].proactive_component 	hdistance[4].proactive_component 	2.8104426895141
scalar barabasi_100nodes_network.node[4].proactive_component 	downloads[4].proactive_component 	845491
scalar barabasi_100nodes_network.node[4].proactive_component 	avg_time[4].proactive_component 	0
scalar barabasi_100nodes_network.node[5].core_layer 	interests[5] 	422025
scalar barabasi_100nodes_network.node[5].core_layer 	data[5] 	274211
scalar barabasi_100nodes_network.node[5].core_layer 	slots_sent[face$o[1]->client[5]] 	142418046
scalar barabasi_100nodes_network.node[5].core_layer 	slots_sent[face$o[2]->node[0]] 	0
scalar barabasi_100nodes_network.node[5].core_layer 	slots_sent[face$o[3]->node[9]] 	25627200
scalar barabasi_100nodes_network.node[5].core_layer 	slots_sent[face$o[4]->node[35]] 	48079151
scalar barabasi_100nodes_network.node[5].content_store 	p_hit[5] 	0.35024939280848
scalar barabasi_100nodes_network.node[5].content_store 	hits[5] 	147814
scalar barabasi_100nodes_network.node[5].content_store 	misses[5] 	274211
scalar barabasi_100nodes_network.node[5].content_store 	decision_yes[5] 	274211
scalar barabasi_100nodes_network.node[5].content_store 	decision_no[5] 	0
scalar barabasi_100nodes_network.node[5].content_store 	decision_ratio[5] 	1
scalar barabasi_100nodes_network.node[5].content_store 	"representation_breakdown[5] 23318:3613:1738:1531:5443:" 	0
scalar barabasi_100nodes_network.node[5].proactive_component 	hdistance[5].proactive_component 	3.1477663779503
scalar barabasi_100nodes_network.node[5].proactive_component 	downloads[5].proactive_component 	625643
scalar barabasi_100nodes_network.node[5].proactive_component 	avg_time[5].proactive_component 	0
scalar barabasi_100nodes_network.node[6].core_layer 	interests[6] 	192982
scalar barabasi_100nodes_network.node[6].core_layer 	data[6] 	74081
scalar barabasi_100nodes_network.node[6].core_layer 	slots_sent[face$o[1]->client[6]] 	144351529
scalar barabasi_100nodes_network.node[6].core_layer 	slots_sent[face$o[2]->node[2]] 	0
scalar barabasi_100nodes_network.node[6].content_store 	p_hit[6] 	0.61612481993139
scalar barabasi_100nodes_network.node[6].content_store 	hits[6] 	118901
scalar barabasi_100nodes_network.node[6].content_store 	misses[6] 	74081
scalar barabasi_100nodes_network.node[6].content_store 	decision_yes[6] 	74081
scalar barabasi_100nodes_network.node[6].content_store 	decision_no[6] 	0
scalar barabasi_100nodes_network.node[6].content_store 	decision_ratio[6] 	1
scalar barabasi_100nodes_network.node[6].content_store 	"representation_breakdown[6] 22130:3033:1627:1394:5806:" 	0
scalar barabasi_100nodes_network.node[6].proactive_component 	hdistance[6].proactive_component 	2.6548991604748
scalar barabasi_100nodes_network.node[6].proactive_component 	downloads[6].proactive_component 	259075
scalar barabasi_100nodes_network.node[6].proactive_component 	avg_time[6].proactive_component 	0
scalar barabasi_100nodes_network.node[7].core_layer 	interests[7] 	2504555
scalar barabasi_100nodes_network.node[7].core_layer 	data[7] 	2012085
scalar barabasi_100nodes_network.node[7].core_layer 	slots_sent[face$o[1]->client[7]] 	130871556
scalar barabasi_100nodes_network.node[7].core_layer 	slots_sent[face$o[2]->node[2]] 	396733484
scalar barabasi_100nodes_network.node[7].core_layer 	slots_sent[face$o[3]->node[23]] 	130518959
scalar barabasi_100nodes_network.node[7].core_layer 	slots_sent[face$o[4]->node[31]] 	71274103
scalar barabasi_100nodes_network.node[7].core_layer 	slots_sent[face$o[5]->node[49]] 	25674230
scalar barabasi_100nodes_network.node[7].core_layer 	slots_sent[face$o[6]->node[90]] 	25175831
scalar barabasi_100nodes_network.node[7].content_store 	p_hit[7] 	0.1966297406126
scalar barabasi_100nodes_network.node[7].content_store 	hits[7] 	492470
scalar barabasi_100nodes_network.node[7].content_store 	misses[7] 	2012085
scalar barabasi_100nodes_network.node[7].content_store 	decision_yes[7] 	2012085
scalar barabasi_100nodes_network.node[7].content_store 	decision_no[7] 	0
scalar barabasi_100nodes_network.node[7].content_store 	decision_ratio[7] 	1
scalar barabasi_100nodes_network.node[7].content_store 	"representation_breakdown[7] 25721:5313:2458:1754:4430:" 	0
scalar barabasi_100nodes_network.node[7].proactive_component 	hdistance[7].proactive_component 	2.5374315133358
scalar barabasi_100nodes_network.node[7].proactive_component 	downloads[7].proactive_component 	5807700
scalar barabasi_100nodes_network.node[7].proactive_component 	avg_time[7].proactive_component 	0
scalar barabasi_100nodes_network.node[8].core_layer 	interests[8] 	746462
scalar barabasi_100nodes_network.node[8].core_layer 	data[8] 	539551
scalar barabasi_100nodes_network.node[8].core_layer 	slots_sent[face$o[1]->client[8]] 	138141556
scalar barabasi_100nodes_network.node[8].core_layer 	slots_sent[face$o[2]->node[2]] 	0
scalar barabasi_100nodes_network.node[8].core_layer 	slots_sent[face$o[3]->node[12]] 	25814939
scalar barabasi_100nodes_network.node[8].core_layer 	slots_sent[face$o[4]->node[14]] 	25808233
scalar barabasi_100nodes_network.node[8].core_layer 	slots_sent[face$o[5]->node[17]] 	25917750
scalar barabasi_100nodes_network.node[8].core_layer 	slots_sent[face$o[6]->node[39]] 	48138853
scalar barabasi_100nodes_network.node[8].core_layer 	slots_sent[face$o[7]->node[61]] 	25551628
scalar barabasi_100nodes_network.node[8].core_layer 	slots_sent[face$o[8]->node[66]] 	25631577
scalar barabasi_100nodes_network.node[8].content_store 	p_hit[8] 	0.27718892589308
scalar barabasi_100nodes_network.node[8].content_store 	hits[8] 	206911
scalar barabasi_100nodes_network.node[8].content_store 	misses[8] 	539551
scalar barabasi_100nodes_network.node[8].content_store 	decision_yes[8] 	539551
scalar barabasi_100nodes_network.node[8].content_store 	decision_no[8] 	0
scalar barabasi_100nodes_network.node[8].content_store 	decision_ratio[8] 	1
scalar barabasi_100nodes_network.node[8].content_store 	"representation_breakdown[8] 23849:3828:1923:1644:5194:" 	0
scalar barabasi_100nodes_network.node[8].proactive_component 	hdistance[8].proactive_component 	2.6155602504952
scalar barabasi_100nodes_network.node[8].proactive_component 	downloads[8].proactive_component 	1372163
scalar barabasi_100nodes_network.node[8].proactive_component 	avg_time[8].proactive_component 	0
scalar barabasi_100nodes_network.node[9].core_layer 	interests[9] 	189984
scalar barabasi_100nodes_network.node[9].core_layer 	data[9] 	72369
scalar barabasi_100nodes_network.node[9].core_layer 	slots_sent[face$o[1]->client[9]] 	147170259
scalar barabasi_100nodes_network.node[9].core_layer 	slots_sent[face$o[2]->node[5]] 	0
scalar barabasi_100nodes_network.node[9].content_store 	p_hit[9] 	0.61907844871147
scalar barabasi_100nodes_network.node[9].content_store 	hits[9] 	117615
scalar barabasi_100nodes_network.node[9].content_store 	misses[9] 	72369
scalar barabasi_100nodes_network.node[9].content_store 	decision_yes[9] 	72369
scalar barabasi_100nodes_network.node[9].content_store 	decision_no[9] 	0
scalar barabasi_100nodes_network.node[9].content_store 	decision_ratio[9] 	1
scalar barabasi_100nodes_network.node[9].content_store 	"representation_breakdown[9] 20827:2857:1467:1269:6110:" 	0
scalar barabasi_100nodes_network.node[9].proactive_component 	hdistance[9].proactive_component 	3.456734272677
scalar barabasi_100nodes_network.node[9].proactive_component 	downloads[9].proactive_component 	204469
scalar barabasi_100nodes_network.node[9].proactive_component 	avg_time[9].proactive_component 	0
scalar barabasi_100nodes_network.node[10].core_layer 	interests[10] 	270006
scalar barabasi_100nodes_network.node[10].core_layer 	data[10] 	141841
scalar barabasi_100nodes_network.node[10].core_layer 	slots_sent[face$o[1]->client[10]] 	143790293
scalar barabasi_100nodes_network.node[10].core_layer 	slots_sent[face$o[2]->node[0]] 	0
scalar barabasi_100nodes_network.node[10].core_layer 	slots_sent[face$o[3]->node[71]] 	25504619
scalar barabasi_100nodes_network.node[10].content_store 	p_hit[10] 	0.47467463685992
scalar barabasi_100nodes_network.node[10].content_store 	hits[10] 	128165
scalar barabasi_100nodes_network.node[10].content_store 	misses[10] 	141841
scalar barabasi_100nodes_network.node[10].content_store 	decision_yes[10] 	141841
scalar barabasi_100nodes_network.node[10].content_store 	decision_no[10] 	0
scalar barabasi_100nodes_network.node[10].content_store 	decision_ratio[10] 	1
scalar barabasi_100nodes_network.node[10].content_store 	"representation_breakdown[10] 22840:3240:1702:1378:5683:" 	0
scalar barabasi_100nodes_network.node[10].proactive_component 	hdistance[10].proactive_component 	3.1323151103749
scalar barabasi_100nodes_network.node[10].proactive_component 	downloads[10].proactive_component 	371235
scalar barabasi_100nodes_network.node[10].proactive_component 	avg_time[10].proactive_component 	0
scalar barabasi_100nodes_network.node[11].core_layer 	interests[11] 	192112
scalar barabasi_100nodes_network.node[11].core_layer 	data[11] 	73469
scalar barabasi_100nodes_network.node[11].core_layer 	slots_sent[face$o[1]->client[11]] 	145540956
scalar barabasi_100nodes_network.node[11].core_layer 	slots_sent[face$o[2]->node[0]] 	0
scalar barabasi_100nodes_network.node[11].content_store 	p_hit[11] 	0.61757204130924
scalar barabasi_100nodes_network.node[11].content_store 	hits[11] 	118643
scalar barabasi_100nodes_network.node[11].content_store 	misses[11] 	73469
scalar barabasi_100nodes_network.node[11].content_store 	decision_yes[11] 	73469
scalar barabasi_100nodes_network.node[11].content_store 	decision_no[11] 	0
scalar barabasi_100nodes_network.node[11].content_store 	decision_ratio[11] 	1
scalar barabasi_100nodes_network.node[11].content_store 	"representation_breakdown[11] 21989:3064:1503:1411:5852:" 	0
scalar barabasi_100nodes_network.node[11].proactive_component 	hdistance[11].proactive_component 	3.1456462270632
scalar barabasi_100nodes_network.node[11].proactive_component 	downloads[11].proactive_component 	240171
scalar barabasi_100nodes_network.node[11].proactive_component 	avg_time[11].proactive_component 	0
scalar barabasi_100nodes_network.node[12].core_layer 	interests[12] 	190312
scalar barabasi_100nodes_network.node[12].core_layer 	data[12] 	72471
scalar barabasi_100nodes_network.node[12].core_layer 	slots_sent[face$o[1]->client[12]] 	146824476
scalar barabasi_100nodes_network.node[12].core_layer 	slots_sent[face$o[2]->node[8]] 	0
scalar barabasi_100nodes_network.node[12].content_store 	p_hit[12] 	0.6191989995376
scalar barabasi_100nodes_network.node[12].content_store 	hits[12] 	117841
scalar barabasi_100nodes_network.node[12].content_store 	misses[12] 	72471
scalar barabasi_100nodes_network.node[12].content_store 	decision_yes[12] 	72471
scalar barabasi_100nodes_network.node[12].content_store 	decision_no[12] 	0
scalar barabasi_100nodes_network.node[12].content_store 	decision_ratio[12] 	1
scalar barabasi_100nodes_network.node[12].content_store 	"representation_breakdown[12] 20836:2814:1524:1326:6053:" 	0
scalar barabasi_100nodes_network.node[12].proactive_component 	hdistance[12].proactive_component 	3.0338552885426
scalar barabasi_100nodes_network.node[12].proactive_component 	downloads[12].proactive_component 	213556
scalar barabasi_100nodes_network.node[12].proactive_component 	avg_time[12].proactive_component 	0
scalar barabasi_100nodes_network.node[13].core_layer 	interests[13] 	2053720
scalar barabasi_100nodes_network.node[13].core_layer 	data[13] 	1522301
scalar barabasi_100nodes_network.node[13].core_layer 	slots_sent[face$o[1]->client[13]] 	131262766
scalar barabasi_100nodes_network.node[13].core_layer 	slots_sent[face$o[2]->node[2]] 	422871974
scalar barabasi_100nodes_network.node[13].core_layer 	slots_sent[face$o[3]->node[67]] 	16977726
scalar barabasi_100nodes_network.node[13].core_layer 	slots_sent[face$o[4]->node[78]] 	47544952
scalar barabasi_100nodes_network.node[13].content_store 	p_hit[13] 	0.25875922715852
scalar barabasi_100nodes_network.node[13].content_store 	hits[13] 	531419
scalar barabasi_100nodes_network.node[13].content_store 	misses[13] 	1522301
scalar barabasi_100nodes_network.node[13].content_store 	decision_yes[13] 	1522301
scalar barabasi_100nodes_network.node[13].content_store 	decision_no[13] 	0
scalar barabasi_100nodes_network.node[13].content_store 	decision_ratio[13] 	1
scalar barabasi_100nodes_network.node[13].content_store 	"representation_breakdown[13] 26118:5970:2640:1793:4159:" 	0
scalar barabasi_100nodes_network.node[13].proactive_component 	hdistance[13].proactive_component 	1.9996660524363
scalar barabasi_100nodes_network.node[13].proactive_component 	downloads[13].proactive_component 	6689673
scalar barabasi_100nodes_network.node[13].proactive_component 	avg_time[13].proactive_component 	0
scalar barabasi_100nodes_network.node[14].core_layer 	interests[14] 	189880
scalar barabasi_100nodes_network.node[14].core_layer 	data[14] 	72499
scalar barabasi_100nodes_network.node[14].core_layer 	slots_sent[face$o[1]->client[14]] 	146380263
scalar barabasi_100nodes_network.node[14].core_layer 	slots_sent[face$o[2]->node[8]] 	0
scalar barabasi_100nodes_network.node[14].content_store 	p_hit[14] 	0.61818516958079
scalar barabasi_100nodes_network.node[14].content_store 	hits[14] 	117381
scalar barabasi_100nodes_network.node[14].content_store 	misses[14] 	72499
scalar barabasi_100nodes_network.node[14].content_store 	decision_yes[14] 	72499
scalar barabasi_100nodes_network.node[14].content_store 	decision_no[14] 	0
scalar barabasi_100nodes_network.node[14].content_store 	decision_ratio[14] 	1
scalar barabasi_100nodes_network.node[14].content_store 	"representation_breakdown[14] 21055:2803:1557:1289:6048:" 	0
scalar barabasi_100nodes_network.node[14].proactive_component 	hdistance[14].proactive_component 	3.0294817927171
scalar barabasi_100nodes_network.node[14].proactive_component 	downloads[14].proactive_component 	214200
scalar barabasi_100nodes_network.node[14].proactive_component 	avg_time[14].proactive_component 	0
scalar barabasi_100nodes_network.node[15].core_layer 	interests[15] 	349067
scalar barabasi_100nodes_network.node[15].core_layer 	data[15] 	208757
scalar barabasi_100nodes_network.node[15].core_layer 	slots_sent[face$o[1]->client[15]] 	142927214
scalar barabasi_100nodes_network.node[15].core_layer 	slots_sent[face$o[2]->node[0]] 	0
scalar barabasi_100nodes_network.node[15].core_layer 	slots_sent[face$o[3]->node[40]] 	25539621
scalar barabasi_100nodes_network.node[15].core_layer 	slots_sent[face$o[4]->node[56]] 	25333274
scalar barabasi_100nodes_network.node[15].content_store 	p_hit[15] 	0.40195721738234
scalar barabasi_100nodes_network.node[15].content_store 	hits[15] 	140310
scalar barabasi_100nodes_network.node[15].content_store 	misses[15] 	208757
scalar barabasi_100nodes_network.node[15].content_store 	decision_yes[15] 	208757
scalar barabasi_100nodes_network.node[15].content_store 	decision_no[15] 	0
scalar barabasi_100nodes_network.node[15].content_store 	decision_ratio[15] 	1
scalar barabasi_100nodes_network.node[15].content_store 	"representation_breakdown[15] 23493:3475:1736:1474:5497:" 	0
scalar barabasi_100nodes_network.node[15].proactive_component 	hdistance[15].proactive_component 	3.1737418423398
scalar barabasi_100nodes_network.node[15].proactive_component 	downloads[15].proactive_component 	528491
scalar barabasi_100nodes_network.node[15].proactive_component 	avg_time[15].proactive_component 	0
scalar barabasi_100nodes_network.node[16].core_layer 	interests[16] 	634012
scalar barabasi_100nodes_network.node[16].core_layer 	data[16] 	474426
scalar barabasi_100nodes_network.node[16].core_layer 	slots_sent[face$o[1]->client[16]] 	139566744
scalar barabasi_100nodes_network.node[16].core_layer 	slots_sent[face$o[2]->node[2]] 	0
scalar barabasi_100nodes_network.node[16].core_layer 	slots_sent[face$o[3]->node[19]] 	111657168
scalar barabasi_100nodes_network.node[16].core_layer 	slots_sent[face$o[4]->node[20]] 	26046256
scalar barabasi_100nodes_network.node[16].content_store 	p_hit[16] 	0.25170816956146
scalar barabasi_100nodes_network.node[16].content_store 	hits[16] 	159586
scalar barabasi_100nodes_network.node[16].content_store 	misses[16] 	474426
scalar barabasi_100nodes_network.node[16].content_store 	decision_yes[16] 	474426
scalar barabasi_100nodes_network.node[16].content_store 	decision_no[16] 	0
scalar barabasi_100nodes_network.node[16].content_store 	decision_ratio[16] 	1
scalar barabasi_100nodes_network.node[16].content_store 	"representation_breakdown[16] 23899:3866:1885:1553:5264:" 	0
scalar barabasi_100nodes_network.node[16].proactive_component 	hdistance[16].proactive_component 	2.5484845094265
scalar barabasi_100nodes_network.node[16].proactive_component 	downloads[16].proactive_component 	822242
scalar barabasi_100nodes_network.node[16].proactive_component 	avg_time[16].proactive_component 	0
scalar barabasi_100nodes_network.node[17].core_layer 	interests[17] 	190467
scalar barabasi_100nodes_network.node[17].core_layer 	data[17] 	72420
scalar barabasi_100nodes_network.node[17].core_layer 	slots_sent[face$o[1]->client[17]] 	147274470
scalar barabasi_100nodes_network.node[17].core_layer 	slots_sent[face$o[2]->node[8]] 	0
scalar barabasi_100nodes_network.node[17].content_store 	p_hit[17] 	0.61977665422357
scalar barabasi_100nodes_network.node[17].content_store 	hits[17] 	118047
scalar barabasi_100nodes_network.node[17].content_store 	misses[17] 	72420
scalar barabasi_100nodes_network.node[17].content_store 	decision_yes[17] 	72420
scalar barabasi_100nodes_network.node[17].content_store 	decision_no[17] 	0
scalar barabasi_100nodes_network.node[17].content_store 	decision_ratio[17] 	1
scalar barabasi_100nodes_network.node[17].content_store 	"representation_breakdown[17] 20546:2727:1453:1323:6128:" 	0
scalar barabasi_100nodes_network.node[17].proactive_component 	hdistance[17].proactive_component 	3.0407607298895
scalar barabasi_100nodes_network.node[17].proactive_component 	downloads[17].proactive_component 	214005
scalar barabasi_100nodes_network.node[17].proactive_component 	avg_time[17].proactive_component 	0
scalar barabasi_100nodes_network.node[18].core_layer 	interests[18] 	2113556
scalar barabasi_100nodes_network.node[18].core_layer 	data[18] 	1572501
scalar barabasi_100nodes_network.node[18].core_layer 	slots_sent[face$o[1]->client[18]] 	130395048
scalar barabasi_100nodes_network.node[18].core_layer 	slots_sent[face$o[2]->node[2]] 	440222612
scalar barabasi_100nodes_network.node[18].core_layer 	slots_sent[face$o[3]->node[53]] 	25431577
scalar barabasi_100nodes_network.node[18].core_layer 	slots_sent[face$o[4]->node[68]] 	16735228
scalar barabasi_100nodes_network.node[18].core_layer 	slots_sent[face$o[5]->node[72]] 	25387226
scalar barabasi_100nodes_network.node[18].content_store 	p_hit[18] 	0.25599274398218
scalar barabasi_100nodes_network.node[18].content_store 	hits[18] 	541055
scalar barabasi_100nodes_network.node[18].content_store 	misses[18] 	1572501
scalar barabasi_100nodes_network.node[18].content_store 	decision_yes[18] 	1572501
scalar barabasi_100nodes_network.node[18].content_store 	decision_no[18] 	0
scalar barabasi_100nodes_network.node[18].content_store 	decision_ratio[18] 	1
scalar barabasi_100nodes_network.node[18].content_store 	"representation_breakdown[18] 25866:5822:2561:1828:4219:" 	0
scalar barabasi_100nodes_network.node[18].proactive_component 	hdistance[18].proactive_component 	1.998712459859
scalar barabasi_100nodes_network.node[18].proactive_component 	downloads[18].proactive_component 	6799788
scalar barabasi_100nodes_network.node[18].proactive_component 	avg_time[18].proactive_component 	0
scalar barabasi_100nodes_network.node[19].core_layer 	interests[19] 	509004
scalar barabasi_100nodes_network.node[19].core_layer 	data[19] 	341152
scalar barabasi_100nodes_network.node[19].core_layer 	slots_sent[face$o[1]->client[19]] 	143237735
scalar barabasi_100nodes_network.node[19].core_layer 	slots_sent[face$o[2]->node[16]] 	0
scalar barabasi_100nodes_network.node[19].core_layer 	slots_sent[face$o[3]->node[63]] 	25809403
scalar barabasi_100nodes_network.node[19].core_layer 	slots_sent[face$o[4]->node[70]] 	25805949
scalar barabasi_100nodes_network.node[19].core_layer 	slots_sent[face$o[5]->node[80]] 	25739284
scalar barabasi_100nodes_network.node[19].core_layer 	slots_sent[face$o[6]->node[89]] 	25555399
scalar barabasi_100nodes_network.node[19].content_store 	p_hit[19] 	0.32976558140997
scalar barabasi_100nodes_network.node[19].content_store 	hits[19] 	167852
scalar barabasi_100nodes_network.node[19].content_store 	misses[19] 	341152
scalar barabasi_100nodes_network.node[19].content_store 	decision_yes[19] 	341152
scalar barabasi_100nodes_network.node[19].content_store 	decision_no[19] 	0
scalar barabasi_100nodes_network.node[19].content_store 	decision_ratio[19] 	1
scalar barabasi_100nodes_network.node[19].content_store 	"representation_breakdown[19] 23078:3654:1746:1538:5447:" 	0
scalar barabasi_100nodes_network.node[19].proactive_component 	hdistance[19].proactive_component 	3.1787669993324
scalar barabasi_100nodes_network.node[19].proactive_component 	downloads[19].proactive_component 	834371
scalar barabasi_100nodes_network.node[19].proactive_component 	avg_time[19].proactive_component 	0
scalar barabasi_100nodes_network.node[20].core_layer 	interests[20] 	190751
scalar barabasi_100nodes_network.node[20].core_layer 	data[20] 	73114
scalar barabasi_100nodes_network.node[20].core_layer 	slots_sent[face$o[1]->client[20]] 	146872461
scalar barabasi_100nodes_network.node[20].core_layer 	slots_sent[face$o[2]->node[16]] 	0
scalar barabasi_100nodes_network.node[20].content_store 	p_hit[20] 	0.61670449958323
scalar barabasi_100nodes_network.node[20].content_store 	hits[20] 	117637
scalar barabasi_100nodes_network.node[20].content_store 	misses[20] 	73114
scalar barabasi_100nodes_network.node[20].content_store 	decision_yes[20] 	73114
scalar barabasi_100nodes_network.node[20].content_store 	decision_no[20] 	0
scalar barabasi_100nodes_network.node[20].content_store 	decision_ratio[20] 	1
scalar barabasi_100nodes_network.node[20].content_store 	"representation_breakdown[20] 20952:2844:1502:1266:6089:" 	0
scalar barabasi_100nodes_network.node[20].proactive_component 	hdistance[20].proactive_component 	3.0279335380916
scalar barabasi_100nodes_network.node[20].proactive_component 	downloads[20].proactive_component 	212934
scalar barabasi_100nodes_network.node[20].proactive_component 	avg_time[20].proactive_component 	0
scalar barabasi_100nodes_network.node[21].core_layer 	interests[21] 	350006
scalar barabasi_100nodes_network.node[21].core_layer 	data[21] 	209135
scalar barabasi_100nodes_network.node[21].core_layer 	slots_sent[face$o[1]->client[21]] 	143189866
scalar barabasi_100nodes_network.node[21].core_layer 	slots_sent[face$o[2]->node[0]] 	0
scalar barabasi_100nodes_network.node[21].core_layer 	slots_sent[face$o[3]->node[24]] 	25563825
scalar barabasi_100nodes_network.node[21].core_layer 	slots_sent[face$o[4]->node[57]] 	25644094
scalar barabasi_100nodes_network.node[21].content_store 	p_hit[21] 	0.40248167174277
scalar barabasi_100nodes_network.node[21].content_store 	hits[21] 	140871
scalar barabasi_100nodes_network.node[21].content_store 	misses[21] 	209135
scalar barabasi_100nodes_network.node[21].content_store 	decision_yes[21] 	209135
scalar barabasi_100nodes_network.node[21].content_store 	decision_no[21] 	0
scalar barabasi_100nodes_network.node[21].content_store 	decision_ratio[21] 	1
scalar barabasi_100nodes_network.node[21].content_store 	"representation_breakdown[21] 23127:3538:1756:1522:5473:" 	0
scalar barabasi_100nodes_network.node[21].proactive_component 	hdistance[21].proactive_component 	3.1709337819655
scalar barabasi_100nodes_network.node[21].proactive_component 	downloads[21].proactive_component 	528421
scalar barabasi_100nodes_network.node[21].proactive_component 	avg_time[21].proactive_component 	0
scalar barabasi_100nodes_network.node[22].core_layer 	interests[22] 	190970
scalar barabasi_100nodes_network.node[22].core_layer 	data[22] 	72719
scalar barabasi_100nodes_network.node[22].core_layer 	slots_sent[face$o[1]->client[22]] 	145003194
scalar barabasi_100nodes_network.node[22].core_layer 	slots_sent[face$o[2]->node[0]] 	0
scalar barabasi_100nodes_network.node[22].content_store 	p_hit[22] 	0.61921244174478
scalar barabasi_100nodes_network.node[22].content_store 	hits[22] 	118251
scalar barabasi_100nodes_network.node[22].content_store 	misses[22] 	72719
scalar barabasi_100nodes_network.node[22].content_store 	decision_yes[22] 	72719
scalar barabasi_100nodes_network.node[22].content_store 	decision_no[22] 	0
scalar barabasi_100nodes_network.node[22].content_store 	decision_ratio[22] 	1
scalar barabasi_100nodes_network.node[22].content_store 	"representation_breakdown[22] 21917:2894:1610:1297:5928:" 	0
scalar barabasi_100nodes_network.node[22].proactive_component 	hdistance[22].proactive_component 	3.1442420121238
scalar barabasi_100nodes_network.node[22].proactive_component 	downloads[22].proactive_component 	241178
scalar barabasi_100nodes_network.node[22].proactive_component 	avg_time[22].proactive_component 	0
scalar barabasi_100nodes_network.node[23].core_layer 	interests[23] 	2072979
scalar barabasi_100nodes_network.node[23].core_layer 	data[23] 	1762497
scalar barabasi_100nodes_network.node[23].core_layer 	slots_sent[face$o[1]->client[23]] 	130449012
scalar barabasi_100nodes_network.node[23].core_layer 	slots_sent[face$o[2]->node[7]] 	374209026
scalar barabasi_100nodes_network.node[23].core_layer 	slots_sent[face$o[3]->node[46]] 	47719470
scalar barabasi_100nodes_network.node[23].core_layer 	slots_sent[face$o[4]->node[47]] 	17066528
scalar barabasi_100nodes_network.node[23].core_layer 	slots_sent[face$o[5]->node[51]] 	25152157
scalar barabasi_100nodes_network.node[23].core_layer 	slots_sent[face$o[6]->node[83]] 	25242595
scalar barabasi_100nodes_network.node[23].core_layer 	slots_sent[face$o[7]->node[86]] 	25409079
scalar barabasi_100nodes_network.node[23].content_store 	p_hit[23] 	0.14977575749682
scalar barabasi_100nodes_network.node[23].content_store 	hits[23] 	310482
scalar barabasi_100nodes_network.node[23].content_store 	misses[23] 	1762497
scalar barabasi_100nodes_network.node[23].content_store 	decision_yes[23] 	1762497
scalar barabasi_100nodes_network.node[23].content_store 	decision_no[23] 	0
scalar barabasi_100nodes_network.node[23].content_store 	decision_ratio[23] 	1
scalar barabasi_100nodes_network.node[23].content_store 	"representation_breakdown[23] 26665:5827:2570:1791:4172:" 	0
scalar barabasi_100nodes_network.node[23].proactive_component 	hdistance[23].proactive_component 	2.087196893473
scalar barabasi_100nodes_network.node[23].proactive_component 	downloads[23].proactive_component 	3393114
scalar barabasi_100nodes_network.node[23].proactive_component 	avg_time[23].proactive_component 	0
scalar barabasi_100nodes_network.node[24].core_layer 	interests[24] 	189439
scalar barabasi_100nodes_network.node[24].core_layer 	data[24] 	72166
scalar barabasi_100nodes_network.node[24].core_layer 	slots_sent[face$o[1]->client[24]] 	146968268
scalar barabasi_100nodes_network.node[24].core_layer 	slots_sent[face$o[2]->node[21]] 	0
scalar barabasi_100nodes_network.node[24].content_store 	p_hit[24] 	0.61905415463553
scalar barabasi_100nodes_network.node[24].content_store 	hits[24] 	117273
scalar barabasi_100nodes_network.node[24].content_store 	misses[24] 	72166
scalar barabasi_100nodes_network.node[24].content_store 	decision_yes[24] 	72166
scalar barabasi_100nodes_network.node[24].content_store 	decision_no[24] 	0
scalar barabasi_100nodes_network.node[24].content_store 	decision_ratio[24] 	1
scalar barabasi_100nodes_network.node[24].content_store 	"representation_breakdown[24] 21306:2812:1497:1280:6057:" 	0
scalar barabasi_100nodes_network.node[24].proactive_component 	hdistance[24].proactive_component 	3.4333210395613
scalar barabasi_100nodes_network.node[24].proactive_component 	downloads[24].proactive_component 	203355
scalar barabasi_100nodes_network.node[24].proactive_component 	avg_time[24].proactive_component 	0
scalar barabasi_100nodes_network.node[25].core_layer 	interests[25] 	1866890
scalar barabasi_100nodes_network.node[25].core_layer 	repo_load[25] 	1662967
scalar barabasi_100nodes_network.node[25].core_layer 	data[25] 	100103
scalar barabasi_100nodes_network.node[25].core_layer 	slots_sent[face$o[1]->client[25]] 	119905239
scalar barabasi_100nodes_network.node[25].core_layer 	slots_sent[face$o[2]->node[2]] 	421235642
scalar barabasi_100nodes_network.node[25].core_layer 	slots_sent[face$o[3]->node[38]] 	18555241
scalar barabasi_100nodes_network.node[25].content_store 	p_hit[25] 	0.055611203659562
scalar barabasi_100nodes_network.node[25].content_store 	hits[25] 	103820
scalar barabasi_100nodes_network.node[25].content_store 	misses[25] 	1763070
scalar barabasi_100nodes_network.node[25].content_store 	decision_yes[25] 	100103
scalar barabasi_100nodes_network.node[25].content_store 	decision_no[25] 	1662967
scalar barabasi_100nodes_network.node[25].content_store 	decision_ratio[25] 	0.056777666229928
scalar barabasi_100nodes_network.node[25].content_store 	"representation_breakdown[25] 21690:3333:1682:1404:5753:" 	0
scalar barabasi_100nodes_network.node[25].proactive_component 	hdistance[25].proactive_component 	2.9444719197971
scalar barabasi_100nodes_network.node[25].proactive_component 	downloads[25].proactive_component 	283082
scalar barabasi_100nodes_network.node[25].proactive_component 	avg_time[25].proactive_component 	0
scalar barabasi_100nodes_network.node[26].core_layer 	interests[26] 	380354
scalar barabasi_100nodes_network.node[26].core_layer 	data[26] 	239286
scalar barabasi_100nodes_network.node[26].core_layer 	slots_sent[face$o[1]->client[26]] 	140885285
scalar barabasi_100nodes_network.node[26].core_layer 	slots_sent[face$o[2]->node[2]] 	0
scalar barabasi_100nodes_network.node[26].core_layer 	slots_sent[face$o[3]->node[77]] 	32242869
scalar barabasi_100nodes_network.node[26].core_layer 	slots_sent[face$o[4]->node[91]] 	25672044
scalar barabasi_100nodes_network.node[26].content_store 	p_hit[26] 	0.37088606929334
scalar barabasi_100nodes_network.node[26].content_store 	hits[26] 	141068
scalar barabasi_100nodes_network.node[26].content_store 	misses[26] 	239286
scalar barabasi_100nodes_network.node[26].content_store 	decision_yes[26] 	239286
scalar barabasi_100nodes_network.node[26].content_store 	decision_no[26] 	0
scalar barabasi_100nodes_network.node[26].content_store 	decision_ratio[26] 	1
scalar barabasi_100nodes_network.node[26].content_store 	"representation_breakdown[26] 23399:3746:1876:1575:5319:" 	0
scalar barabasi_100nodes_network.node[26].proactive_component 	hdistance[26].proactive_component 	2.6891803180107
scalar barabasi_100nodes_network.node[26].proactive_component 	downloads[26].proactive_component 	598659
scalar barabasi_100nodes_network.node[26].proactive_component 	avg_time[26].proactive_component 	0
scalar barabasi_100nodes_network.node[27].core_layer 	interests[27] 	275217
scalar barabasi_100nodes_network.node[27].core_layer 	data[27] 	144178
scalar barabasi_100nodes_network.node[27].core_layer 	slots_sent[face$o[1]->client[27]] 	140433085
scalar barabasi_100nodes_network.node[27].core_layer 	slots_sent[face$o[2]->node[4]] 	0
scalar barabasi_100nodes_network.node[27].core_layer 	slots_sent[face$o[3]->node[99]] 	23629615
scalar barabasi_100nodes_network.node[27].content_store 	p_hit[27] 	0.47612974489221
scalar barabasi_100nodes_network.node[27].content_store 	hits[27] 	131039
scalar barabasi_100nodes_network.node[27].content_store 	misses[27] 	144178
scalar barabasi_100nodes_network.node[27].content_store 	decision_yes[27] 	144178
scalar barabasi_100nodes_network.node[27].content_store 	decision_no[27] 	0
scalar barabasi_100nodes_network.node[27].content_store 	decision_ratio[27] 	1
scalar barabasi_100nodes_network.node[27].content_store 	"representation_breakdown[27] 25326:3800:1734:1378:5344:" 	0
scalar barabasi_100nodes_network.node[27].proactive_component 	hdistance[27].proactive_component 	2.4575299063626
scalar barabasi_100nodes_network.node[27].proactive_component 	downloads[27].proactive_component 	474063
scalar barabasi_100nodes_network.node[27].proactive_component 	avg_time[27].proactive_component 	0
scalar barabasi_100nodes_network.node[28].core_layer 	interests[28] 	191609
scalar barabasi_100nodes_network.node[28].core_layer 	data[28] 	72730
scalar barabasi_100nodes_network.node[28].core_layer 	slots_sent[face$o[1]->client[28]] 	145981199
scalar barabasi_100nodes_network.node[28].core_layer 	slots_sent[face$o[2]->node[0]] 	0
scalar barabasi_100nodes_network.node[28].content_store 	p_hit[28] 	0.62042492784786
scalar barabasi_100nodes_network.node[28].content_store 	hits[28] 	118879
scalar barabasi_100nodes_network.node[28].content_store 	misses[28] 	72730
scalar barabasi_100nodes_network.node[28].content_store 	decision_yes[28] 	72730
scalar barabasi_100nodes_network.node[28].content_store 	decision_no[28] 	0
scalar barabasi_100nodes_network.node[28].content_store 	decision_ratio[28] 	1
scalar barabasi_100nodes_network.node[28].content_store 	"representation_breakdown[28] 22117:2986:1543:1375:5866:" 	0
scalar barabasi_100nodes_network.node[28].proactive_component 	hdistance[28].proactive_component 	3.1520917301945
scalar barabasi_100nodes_network.node[28].proactive_component 	downloads[28].proactive_component 	239921
scalar barabasi_100nodes_network.node[28].proactive_component 	avg_time[28].proactive_component 	0
scalar barabasi_100nodes_network.node[29].core_layer 	interests[29] 	190067
scalar barabasi_100nodes_network.node[29].core_layer 	repo_load[29] 	36464
scalar barabasi_100nodes_network.node[29].core_layer 	data[29] 	52850
scalar barabasi_100nodes_network.node[29].core_layer 	slots_sent[face$o[1]->client[29]] 	121923005
scalar barabasi_100nodes_network.node[29].core_layer 	slots_sent[face$o[2]->node[2]] 	0
scalar barabasi_100nodes_network.node[29].content_store 	p_hit[29] 	0.53009202018236
scalar barabasi_100nodes_network.node[29].content_store 	hits[29] 	100753
scalar barabasi_100nodes_network.node[29].content_store 	misses[29] 	89314
scalar barabasi_100nodes_network.node[29].content_store 	decision_yes[29] 	52850
scalar barabasi_100nodes_network.node[29].content_store 	decision_no[29] 	36464
scalar barabasi_100nodes_network.node[29].content_store 	decision_ratio[29] 	0.5917325391316
scalar barabasi_100nodes_network.node[29].content_store 	"representation_breakdown[29] 24072:3495:1641:1337:5582:" 	0
scalar barabasi_100nodes_network.node[29].proactive_component 	hdistance[29].proactive_component 	2.8186265219
scalar barabasi_100nodes_network.node[29].proactive_component 	downloads[29].proactive_component 	221598
scalar barabasi_100nodes_network.node[29].proactive_component 	avg_time[29].proactive_component 	0
scalar barabasi_100nodes_network.node[30].core_layer 	interests[30] 	251709
scalar barabasi_100nodes_network.node[30].core_layer 	data[30] 	125374
scalar barabasi_100nodes_network.node[30].core_layer 	slots_sent[face$o[1]->client[30]] 	140552660
scalar barabasi_100nodes_network.node[30].core_layer 	slots_sent[face$o[2]->node[4]] 	0
scalar barabasi_100nodes_network.node[30].core_layer 	slots_sent[face$o[3]->node[88]] 	15841945
scalar barabasi_100nodes_network.node[30].content_store 	p_hit[30] 	0.50190895041496
scalar barabasi_100nodes_network.node[30].content_store 	hits[30] 	126335
scalar barabasi_100nodes_network.node[30].content_store 	misses[30] 	125374
scalar barabasi_100nodes_network.node[30].content_store 	decision_yes[30] 	125374
scalar barabasi_100nodes_network.node[30].content_store 	decision_no[30] 	0
scalar barabasi_100nodes_network.node[30].content_store 	decision_ratio[30] 	1
scalar barabasi_100nodes_network.node[30].content_store 	"representation_breakdown[30] 25235:3931:1836:1308:5332:" 	0
scalar barabasi_100nodes_network.node[30].proactive_component 	hdistance[30].proactive_component 	2.4017242876692
scalar barabasi_100nodes_network.node[30].proactive_component 	downloads[30].proactive_component 	426031
scalar barabasi_100nodes_network.node[30].proactive_component 	avg_time[30].proactive_component 	0
scalar barabasi_100nodes_network.node[31].core_layer 	interests[31] 	349491
scalar barabasi_100nodes_network.node[31].core_layer 	data[31] 	219812
scalar barabasi_100nodes_network.node[31].core_layer 	slots_sent[face$o[1]->client[31]] 	142789253
scalar barabasi_100nodes_network.node[31].core_layer 	slots_sent[face$o[2]->node[7]] 	0
scalar barabasi_100nodes_network.node[31].core_layer 	slots_sent[face$o[3]->node[65]] 	47162018
scalar barabasi_100nodes_network.node[31].content_store 	p_hit[31] 	0.37105104280225
scalar barabasi_100nodes_network.node[31].content_store 	hits[31] 	129679
scalar barabasi_100nodes_network.node[31].content_store 	misses[31] 	219812
scalar barabasi_100nodes_network.node[31].content_store 	decision_yes[31] 	219812
scalar barabasi_100nodes_network.node[31].content_store 	decision_no[31] 	0
scalar barabasi_100nodes_network.node[31].content_store 	decision_ratio[31] 	1
scalar barabasi_100nodes_network.node[31].content_store 	"representation_breakdown[31] 23372:3784:1863:1492:5378:" 	0
scalar barabasi_100nodes_network.node[31].proactive_component 	hdistance[31].proactive_component 	2.9449103070017
scalar barabasi_100nodes_network.node[31].proactive_component 	downloads[31].proactive_component 	441952
scalar barabasi_100nodes_network.node[31].proactive_component 	avg_time[31].proactive_component 	0
scalar barabasi_100nodes_network.node[32].core_layer 	interests[32] 	351423
scalar barabasi_100nodes_network.node[32].core_layer 	data[32] 	209254
scalar barabasi_100nodes_network.node[32].core_layer 	slots_sent[face$o[1]->client[32]] 	142537707
scalar barabasi_100nodes_network.node[32].core_layer 	slots_sent[face$o[2]->node[2]] 	0
scalar barabasi_100nodes_network.node[32].core_layer 	slots_sent[face$o[3]->node[43]] 	25603412
scalar barabasi_100nodes_network.node[32].core_layer 	slots_sent[face$o[4]->node[64]] 	25494419
scalar barabasi_100nodes_network.node[32].content_store 	p_hit[32] 	0.40455234859414
scalar barabasi_100nodes_network.node[32].content_store 	hits[32] 	142169
scalar barabasi_100nodes_network.node[32].content_store 	misses[32] 	209254
scalar barabasi_100nodes_network.node[32].content_store 	decision_yes[32] 	209254
scalar barabasi_100nodes_network.node[32].content_store 	decision_no[32] 	0
scalar barabasi_100nodes_network.node[32].content_store 	decision_ratio[32] 	1
scalar barabasi_100nodes_network.node[32].content_store 	"representation_breakdown[32] 23046:3495:1794:1462:5515:" 	0
scalar barabasi_100nodes_network.node[32].proactive_component 	hdistance[32].proactive_component 	2.6606405736841
scalar barabasi_100nodes_network.node[32].proactive_component 	downloads[32].proactive_component 	564213
scalar barabasi_100nodes_network.node[32].proactive_component 	avg_time[32].proactive_component 	0
scalar barabasi_100nodes_network.node[33].core_layer 	interests[33] 	192632
scalar barabasi_100nodes_network.node[33].core_layer 	data[33] 	74336
scalar barabasi_100nodes_network.node[33].core_layer 	slots_sent[face$o[1]->client[33]] 	143967497
scalar barabasi_100nodes_network.node[33].core_layer 	slots_sent[face$o[2]->node[2]] 	0
scalar barabasi_100nodes_network.node[33].content_store 	p_hit[33] 	0.61410357572989
scalar barabasi_100nodes_network.node[33].content_store 	hits[33] 	118296
scalar barabasi_100nodes_network.node[33].content_store 	misses[33] 	74336
scalar barabasi_100nodes_network.node[33].content_store 	decision_yes[33] 	74336
scalar barabasi_100nodes_network.node[33].content_store 	decision_no[33] 	0
scalar barabasi_100nodes_network.node[33].content_store 	decision_ratio[33] 	1
scalar barabasi_100nodes_network.node[33].content_store 	"representation_breakdown[33] 22165:2956:1617:1327:5870:" 	0
scalar barabasi_100nodes_network.node[33].proactive_component 	hdistance[33].proactive_component 	2.6599693085951
scalar barabasi_100nodes_network.node[33].proactive_component 	downloads[33].proactive_component 	259356
[...]
scalar barabasi_100nodes_network.client[8] 	avg_time[8].real 	0
scalar barabasi_100nodes_network.client[9] 	hdistance[9].real 	1.5018155974815
scalar barabasi_100nodes_network.client[9] 	downloads[9].real 	180106
scalar barabasi_100nodes_network.client[9] 	avg_time[9].real 	0
scalar barabasi_100nodes_network.client[10] 	hdistance[10].real 	1.2981067470067
scalar barabasi_100nodes_network.client[10] 	downloads[10].real 	179902
scalar barabasi_100nodes_network.client[10] 	avg_time[10].real 	0
scalar barabasi_100nodes_network.client[11] 	hdistance[11].real 	1.2755740202188
scalar barabasi_100nodes_network.client[11] 	downloads[11].real 	180525
scalar barabasi_100nodes_network.client[11] 	avg_time[11].real 	0
scalar barabasi_100nodes_network.client[12] 	hdistance[12].real 	1.2598906472262
scalar barabasi_100nodes_network.client[12] 	downloads[12].real 	179968
scalar barabasi_100nodes_network.client[12] 	avg_time[12].real 	0
scalar barabasi_100nodes_network.client[13] 	hdistance[13].real 	1.1426572807857
scalar barabasi_100nodes_network.client[13] 	downloads[13].real 	180839
scalar barabasi_100nodes_network.client[13] 	avg_time[13].real 	0
scalar barabasi_100nodes_network.client[14] 	hdistance[14].real 	1.2688725203632
scalar barabasi_100nodes_network.client[14] 	downloads[14].real 	179613
scalar barabasi_100nodes_network.client[14] 	avg_time[14].real 	0
scalar barabasi_100nodes_network.client[15] 	hdistance[15].real 	1.3247288936199
scalar barabasi_100nodes_network.client[15] 	downloads[15].real 	180372
scalar barabasi_100nodes_network.client[15] 	avg_time[15].real 	0
scalar barabasi_100nodes_network.client[16] 	hdistance[16].real 	1.112362602338
scalar barabasi_100nodes_network.client[16] 	downloads[16].real 	180407
scalar barabasi_100nodes_network.client[16] 	avg_time[16].real 	0
scalar barabasi_100nodes_network.client[17] 	hdistance[17].real 	1.2617459348466
scalar barabasi_100nodes_network.client[17] 	downloads[17].real 	180190
scalar barabasi_100nodes_network.client[17] 	avg_time[17].real 	0
scalar barabasi_100nodes_network.client[18] 	hdistance[18].real 	1.1364818935645
scalar barabasi_100nodes_network.client[18] 	downloads[18].real 	180654
scalar barabasi_100nodes_network.client[18] 	avg_time[18].real 	0
scalar barabasi_100nodes_network.client[19] 	hdistance[19].real 	1.3805689777463
scalar barabasi_100nodes_network.client[19] 	downloads[19].real 	180464
scalar barabasi_100nodes_network.client[19] 	avg_time[19].real 	0
scalar barabasi_100nodes_network.client[20] 	hdistance[20].real 	1.2750824487986
scalar barabasi_100nodes_network.client[20] 	downloads[20].real 	180415
scalar barabasi_100nodes_network.client[20] 	avg_time[20].real 	0
scalar barabasi_100nodes_network.client[21] 	hdistance[21].real 	1.3232353446223
scalar barabasi_100nodes_network.client[21] 	downloads[21].real 	180531
scalar barabasi_100nodes_network.client[21] 	avg_time[21].real 	0
scalar barabasi_100nodes_network.client[22] 	hdistance[22].real 	1.2675798119842
scalar barabasi_100nodes_network.client[22] 	downloads[22].real 	179453
scalar barabasi_100nodes_network.client[22] 	avg_time[22].real 	0
scalar barabasi_100nodes_network.client[23] 	hdistance[23].real 	1.3533068028981
scalar barabasi_100nodes_network.client[23] 	downloads[23].real 	180673
scalar barabasi_100nodes_network.client[23] 	avg_time[23].real 	0
scalar barabasi_100nodes_network.client[24] 	hdistance[24].real 	1.5038095291099
scalar barabasi_100nodes_network.client[24] 	downloads[24].real 	179681
scalar barabasi_100nodes_network.client[24] 	avg_time[24].real 	0
scalar barabasi_100nodes_network.client[25] 	hdistance[25].real 	1.0210127722514
scalar barabasi_100nodes_network.client[25] 	downloads[25].real 	179843
scalar barabasi_100nodes_network.client[25] 	avg_time[25].real 	0
scalar barabasi_100nodes_network.client[26] 	hdistance[26].real 	1.0810548454942
scalar barabasi_100nodes_network.client[26] 	downloads[26].real 	179249
scalar barabasi_100nodes_network.client[26] 	avg_time[26].real 	0
scalar barabasi_100nodes_network.client[27] 	hdistance[27].real 	1.1121021724409
scalar barabasi_100nodes_network.client[27] 	downloads[27].real 	180166
scalar barabasi_100nodes_network.client[27] 	avg_time[27].real 	0
scalar barabasi_100nodes_network.client[28] 	hdistance[28].real 	1.267898319365
scalar barabasi_100nodes_network.client[28] 	downloads[28].real 	180408
scalar barabasi_100nodes_network.client[28] 	avg_time[28].real 	0
scalar barabasi_100nodes_network.client[29] 	hdistance[29].real 	0.94298421615838
scalar barabasi_100nodes_network.client[29] 	downloads[29].real 	179424
scalar barabasi_100nodes_network.client[29] 	avg_time[29].real 	0
scalar barabasi_100nodes_network.client[30] 	hdistance[30].real 	1.108086429037
scalar barabasi_100nodes_network.client[30] 	downloads[30].real 	179523
scalar barabasi_100nodes_network.client[30] 	avg_time[30].real 	0
scalar barabasi_100nodes_network.client[31] 	hdistance[31].real 	1.2321830020372
scalar barabasi_100nodes_network.client[31] 	downloads[31].real 	180151
scalar barabasi_100nodes_network.client[31] 	avg_time[31].real 	0
scalar barabasi_100nodes_network.client[32] 	hdistance[32].real 	1.067762796961
scalar barabasi_100nodes_network.client[32] 	downloads[32].real 	180453
scalar barabasi_100nodes_network.client[32] 	avg_time[32].real 	0
scalar barabasi_100nodes_network.client[33] 	hdistance[33].real 	1.0450269451274
scalar barabasi_100nodes_network.client[33] 	downloads[33].real 	180181
scalar barabasi_100nodes_network.client[33] 	avg_time[33].real 	0
scalar barabasi_100nodes_network.client[34] 	hdistance[34].real 	1.0345376491991
scalar barabasi_100nodes_network.client[34] 	downloads[34].real 	180296
scalar barabasi_100nodes_network.client[34] 	avg_time[34].real 	0
scalar barabasi_100nodes_network.client[35] 	hdistance[35].real 	1.541514765361
scalar barabasi_100nodes_network.client[35] 	downloads[35].real 	180490
scalar barabasi_100nodes_network.client[35] 	avg_time[35].real 	0
scalar barabasi_100nodes_network.client[36] 	hdistance[36].real 	1.0562208049117
scalar barabasi_100nodes_network.client[36] 	downloads[36].real 	180467
scalar barabasi_100nodes_network.client[36] 	avg_time[36].real 	0
scalar barabasi_100nodes_network.client[37] 	hdistance[37].real 	1.2731344605742
scalar barabasi_100nodes_network.client[37] 	downloads[37].real 	180618
scalar barabasi_100nodes_network.client[37] 	avg_time[37].real 	0
scalar barabasi_100nodes_network.client[38] 	hdistance[38].real 	1.1695122289775
scalar barabasi_100nodes_network.client[38] 	downloads[38].real 	180105
scalar barabasi_100nodes_network.client[38] 	avg_time[38].real 	0
scalar barabasi_100nodes_network.client[39] 	hdistance[39].real 	1.2962816543798
scalar barabasi_100nodes_network.client[39] 	downloads[39].real 	179596
scalar barabasi_100nodes_network.client[39] 	avg_time[39].real 	0
scalar barabasi_100nodes_network.client[40] 	hdistance[40].real 	1.5075899852201
scalar barabasi_100nodes_network.client[40] 	downloads[40].real 	179974
scalar barabasi_100nodes_network.client[40] 	avg_time[40].real 	0
scalar barabasi_100nodes_network.client[41] 	hdistance[41].real 	1.1053095076192
scalar barabasi_100nodes_network.client[41] 	downloads[41].real 	179414
scalar barabasi_100nodes_network.client[41] 	avg_time[41].real 	0
scalar barabasi_100nodes_network.client[42] 	hdistance[42].real 	1.2635112173327
scalar barabasi_100nodes_network.client[42] 	downloads[42].real 	179499
scalar barabasi_100nodes_network.client[42] 	avg_time[42].real 	0
scalar barabasi_100nodes_network.client[43] 	hdistance[43].real 	1.2771847435705
scalar barabasi_100nodes_network.client[43] 	downloads[43].real 	180147
scalar barabasi_100nodes_network.client[43] 	avg_time[43].real 	0
scalar barabasi_100nodes_network.client[44] 	hdistance[44].real 	1.2657671878548
scalar barabasi_100nodes_network.client[44] 	downloads[44].real 	180549
scalar barabasi_100nodes_network.client[44] 	avg_time[44].real 	0
scalar barabasi_100nodes_network.client[45] 	hdistance[45].real 	1.037032100411
scalar barabasi_100nodes_network.client[45] 	downloads[45].real 	180060
scalar barabasi_100nodes_network.client[45] 	avg_time[45].real 	0
scalar barabasi_100nodes_network.client[46] 	hdistance[46].real 	1.3823682371033
scalar barabasi_100nodes_network.client[46] 	downloads[46].real 	178825
scalar barabasi_100nodes_network.client[46] 	avg_time[46].real 	0
scalar barabasi_100nodes_network.client[47] 	hdistance[47].real 	1.3701065837682
scalar barabasi_100nodes_network.client[47] 	downloads[47].real 	180140
scalar barabasi_100nodes_network.client[47] 	avg_time[47].real 	0
scalar barabasi_100nodes_network.client[48] 	hdistance[48].real 	1.2687089934167
scalar barabasi_100nodes_network.client[48] 	downloads[48].real 	180154
scalar barabasi_100nodes_network.client[48] 	avg_time[48].real 	0
scalar barabasi_100nodes_network.client[49] 	hdistance[49].real 	1.1813775608893
scalar barabasi_100nodes_network.client[49] 	downloads[49].real 	180943
scalar barabasi_100nodes_network.client[49] 	avg_time[49].real 	0
scalar barabasi_100nodes_network.client[50] 	hdistance[50].real 	1.7618201011167
scalar barabasi_100nodes_network.client[50] 	downloads[50].real 	179990
scalar barabasi_100nodes_network.client[50] 	avg_time[50].real 	0
scalar barabasi_100nodes_network.client[51] 	hdistance[51].real 	1.3551176676813
scalar barabasi_100nodes_network.client[51] 	downloads[51].real 	179701
scalar barabasi_100nodes_network.client[51] 	avg_time[51].real 	0
scalar barabasi_100nodes_network.client[52] 	hdistance[52].real 	1.1497364478722
scalar barabasi_100nodes_network.client[52] 	downloads[52].real 	180230
scalar barabasi_100nodes_network.client[52] 	avg_time[52].real 	0
scalar barabasi_100nodes_network.client[53] 	hdistance[53].real 	1.1941048808575
scalar barabasi_100nodes_network.client[53] 	downloads[53].real 	180624
scalar barabasi_100nodes_network.client[53] 	avg_time[53].real 	0
scalar barabasi_100nodes_network.client[54] 	hdistance[54].real 	1.1430549685227
scalar barabasi_100nodes_network.client[54] 	downloads[54].real 	179812
scalar barabasi_100nodes_network.client[54] 	avg_time[54].real 	0
scalar barabasi_100nodes_network.client[55] 	hdistance[55].real 	1.2657932718996
scalar barabasi_100nodes_network.client[55] 	downloads[55].real 	180140
scalar barabasi_100nodes_network.client[55] 	avg_time[55].real 	0
scalar barabasi_100nodes_network.client[56] 	hdistance[56].real 	1.4943157401258
scalar barabasi_100nodes_network.client[56] 	downloads[56].real 	179179
scalar barabasi_100nodes_network.client[56] 	avg_time[56].real 	0
scalar barabasi_100nodes_network.client[57] 	hdistance[57].real 	1.4985235617263
scalar barabasi_100nodes_network.client[57] 	downloads[57].real 	179486
scalar barabasi_100nodes_network.client[57] 	avg_time[57].real 	0
scalar barabasi_100nodes_network.client[58] 	hdistance[58].real 	1.2991614523003
scalar barabasi_100nodes_network.client[58] 	downloads[58].real 	180431
scalar barabasi_100nodes_network.client[58] 	avg_time[58].real 	0
scalar barabasi_100nodes_network.client[59] 	hdistance[59].real 	1.0431830526887
scalar barabasi_100nodes_network.client[59] 	downloads[59].real 	180418
scalar barabasi_100nodes_network.client[59] 	avg_time[59].real 	0
scalar barabasi_100nodes_network.client[60] 	hdistance[60].real 	1.5228037632318
scalar barabasi_100nodes_network.client[60] 	downloads[60].real 	180058
scalar barabasi_100nodes_network.client[60] 	avg_time[60].real 	0
scalar barabasi_100nodes_network.client[61] 	hdistance[61].real 	1.2671909861669
scalar barabasi_100nodes_network.client[61] 	downloads[61].real 	179280
scalar barabasi_100nodes_network.client[61] 	avg_time[61].real 	0
scalar barabasi_100nodes_network.client[62] 	hdistance[62].real 	1.0756743839682
scalar barabasi_100nodes_network.client[62] 	downloads[62].real 	179942
scalar barabasi_100nodes_network.client[62] 	avg_time[62].real 	0
scalar barabasi_100nodes_network.client[63] 	hdistance[63].real 	1.5250104430644
scalar barabasi_100nodes_network.client[63] 	downloads[63].real 	179545
scalar barabasi_100nodes_network.client[63] 	avg_time[63].real 	0
scalar barabasi_100nodes_network.client[64] 	hdistance[64].real 	1.2703082090675
scalar barabasi_100nodes_network.client[64] 	downloads[64].real 	179521
scalar barabasi_100nodes_network.client[64] 	avg_time[64].real 	0
scalar barabasi_100nodes_network.client[65] 	hdistance[65].real 	1.2142749970825
scalar barabasi_100nodes_network.client[65] 	downloads[65].real 	179951
scalar barabasi_100nodes_network.client[65] 	avg_time[65].real 	0
scalar barabasi_100nodes_network.client[66] 	hdistance[66].real 	1.2653614004581
scalar barabasi_100nodes_network.client[66] 	downloads[66].real 	179427
scalar barabasi_100nodes_network.client[66] 	avg_time[66].real 	0
scalar barabasi_100nodes_network.client[67] 	hdistance[67].real 	1.1527354778472
scalar barabasi_100nodes_network.client[67] 	downloads[67].real 	179932
scalar barabasi_100nodes_network.client[67] 	avg_time[67].real 	0
scalar barabasi_100nodes_network.client[68] 	hdistance[68].real 	1.2292771606792
scalar barabasi_100nodes_network.client[68] 	downloads[68].real 	179874
scalar barabasi_100nodes_network.client[68] 	avg_time[68].real 	0
scalar barabasi_100nodes_network.client[69] 	hdistance[69].real 	1.2711465775333
scalar barabasi_100nodes_network.client[69] 	downloads[69].real 	180703
scalar barabasi_100nodes_network.client[69] 	avg_time[69].real 	0
scalar barabasi_100nodes_network.client[70] 	hdistance[70].real 	1.5303273187156
scalar barabasi_100nodes_network.client[70] 	downloads[70].real 	180283
scalar barabasi_100nodes_network.client[70] 	avg_time[70].real 	0
scalar barabasi_100nodes_network.client[71] 	hdistance[71].real 	1.522403382983
scalar barabasi_100nodes_network.client[71] 	downloads[71].real 	180196
scalar barabasi_100nodes_network.client[71] 	avg_time[71].real 	0
scalar barabasi_100nodes_network.client[72] 	hdistance[72].real 	1.1988357860106
scalar barabasi_100nodes_network.client[72] 	downloads[72].real 	180551
scalar barabasi_100nodes_network.client[72] 	avg_time[72].real 	0
scalar barabasi_100nodes_network.client[73] 	hdistance[73].real 	1.14313443046
scalar barabasi_100nodes_network.client[73] 	downloads[73].real 	179803
scalar barabasi_100nodes_network.client[73] 	avg_time[73].real 	0
scalar barabasi_100nodes_network.client[74] 	hdistance[74].real 	1.1701531007323
scalar barabasi_100nodes_network.client[74] 	downloads[74].real 	180796
scalar barabasi_100nodes_network.client[74] 	avg_time[74].real 	0
scalar barabasi_100nodes_network.client[75] 	hdistance[75].real 	1.2945757548806
scalar barabasi_100nodes_network.client[75] 	downloads[75].real 	179896
scalar barabasi_100nodes_network.client[75] 	avg_time[75].real 	0
scalar barabasi_100nodes_network.client[76] 	hdistance[76].real 	1.2041226999337
scalar barabasi_100nodes_network.client[76] 	downloads[76].real 	179397
scalar barabasi_100nodes_network.client[76] 	avg_time[76].real 	0
scalar barabasi_100nodes_network.client[77] 	hdistance[77].real 	1.2075236435899
scalar barabasi_100nodes_network.client[77] 	downloads[77].real 	179647
scalar barabasi_100nodes_network.client[77] 	avg_time[77].real 	0
scalar barabasi_100nodes_network.client[78] 	hdistance[78].real 	1.1218476182004
scalar barabasi_100nodes_network.client[78] 	downloads[78].real 	179864
scalar barabasi_100nodes_network.client[78] 	avg_time[78].real 	0
scalar barabasi_100nodes_network.client[79] 	hdistance[79].real 	1.0387881684693
scalar barabasi_100nodes_network.client[79] 	downloads[79].real 	179926
scalar barabasi_100nodes_network.client[79] 	avg_time[79].real 	0
scalar barabasi_100nodes_network.client[80] 	hdistance[80].real 	1.5197557092696
scalar barabasi_100nodes_network.client[80] 	downloads[80].real 	180277
scalar barabasi_100nodes_network.client[80] 	avg_time[80].real 	0
scalar barabasi_100nodes_network.client[81] 	hdistance[81].real 	1.1521920134996
scalar barabasi_100nodes_network.client[81] 	downloads[81].real 	180154
scalar barabasi_100nodes_network.client[81] 	avg_time[81].real 	0
scalar barabasi_100nodes_network.client[82] 	hdistance[82].real 	1.5790767686904
scalar barabasi_100nodes_network.client[82] 	downloads[82].real 	179370
scalar barabasi_100nodes_network.client[82] 	avg_time[82].real 	0
scalar barabasi_100nodes_network.client[83] 	hdistance[83].real 	1.3473166249695
scalar barabasi_100nodes_network.client[83] 	downloads[83].real 	180668
scalar barabasi_100nodes_network.client[83] 	avg_time[83].real 	0
scalar barabasi_100nodes_network.client[84] 	hdistance[84].real 	1.2175972569342
scalar barabasi_100nodes_network.client[84] 	downloads[84].real 	179653
scalar barabasi_100nodes_network.client[84] 	avg_time[84].real 	0
scalar barabasi_100nodes_network.client[85] 	hdistance[85].real 	1.0727743052857
scalar barabasi_100nodes_network.client[85] 	downloads[85].real 	180146
scalar barabasi_100nodes_network.client[85] 	avg_time[85].real 	0
scalar barabasi_100nodes_network.client[86] 	hdistance[86].real 	1.3520719883119
scalar barabasi_100nodes_network.client[86] 	downloads[86].real 	180696
scalar barabasi_100nodes_network.client[86] 	avg_time[86].real 	0
scalar barabasi_100nodes_network.client[87] 	hdistance[87].real 	1.1533597845482
scalar barabasi_100nodes_network.client[87] 	downloads[87].real 	180458
scalar barabasi_100nodes_network.client[87] 	avg_time[87].real 	0
scalar barabasi_100nodes_network.client[88] 	hdistance[88].real 	1.1296092917998
scalar barabasi_100nodes_network.client[88] 	downloads[88].real 	180288
scalar barabasi_100nodes_network.client[88] 	avg_time[88].real 	0
scalar barabasi_100nodes_network.client[89] 	hdistance[89].real 	1.5218122848382
scalar barabasi_100nodes_network.client[89] 	downloads[89].real 	180678
scalar barabasi_100nodes_network.client[89] 	avg_time[89].real 	0
scalar barabasi_100nodes_network.client[90] 	hdistance[90].real 	1.1807293171263
scalar barabasi_100nodes_network.client[90] 	downloads[90].real 	180004
scalar barabasi_100nodes_network.client[90] 	avg_time[90].real 	0
scalar barabasi_100nodes_network.client[91] 	hdistance[91].real 	1.2752071439679
scalar barabasi_100nodes_network.client[91] 	downloads[91].real 	180068
scalar barabasi_100nodes_network.client[91] 	avg_time[91].real 	0
scalar barabasi_100nodes_network.client[92] 	hdistance[92].real 	1.270355911721
scalar barabasi_100nodes_network.client[92] 	downloads[92].real 	179567
scalar barabasi_100nodes_network.client[92] 	avg_time[92].real 	0
scalar barabasi_100nodes_network.client[93] 	hdistance[93].real 	1.2762698913657
scalar barabasi_100nodes_network.client[93] 	downloads[93].real 	180606
scalar barabasi_100nodes_network.client[93] 	avg_time[93].real 	0
scalar barabasi_100nodes_network.client[94] 	hdistance[94].real 	1.5108275436245
scalar barabasi_100nodes_network.client[94] 	downloads[94].real 	179773
scalar barabasi_100nodes_network.client[94] 	avg_time[94].real 	0
scalar barabasi_100nodes_network.client[95] 	hdistance[95].real 	1.3192800542349
scalar barabasi_100nodes_network.client[95] 	downloads[95].real 	179958
scalar barabasi_100nodes_network.client[95] 	avg_time[95].real 	0
scalar barabasi_100nodes_network.client[96] 	hdistance[96].real 	1.2635887979204
scalar barabasi_100nodes_network.client[96] 	downloads[96].real 	180038
scalar barabasi_100nodes_network.client[96] 	avg_time[96].real 	0
scalar barabasi_100nodes_network.client[97] 	hdistance[97].real 	1.2100925910553
scalar barabasi_100nodes_network.client[97] 	downloads[97].real 	180687
scalar barabasi_100nodes_network.client[97] 	avg_time[97].real 	0
scalar barabasi_100nodes_network.client[98] 	hdistance[98].real 	1.3255159683302
scalar barabasi_100nodes_network.client[98] 	downloads[98].real 	179856
scalar barabasi_100nodes_network.client[98] 	avg_time[98].real 	0
scalar barabasi_100nodes_network.client[99] 	hdistance[99].real 	1.3296501841574
scalar barabasi_100nodes_network.client[99] 	downloads[99].real 	180009
scalar barabasi_100nodes_network.client[99] 	avg_time[99].real 	0
