version 2
run General-4-20150722-13:23:51-32208
attr C 1e4
attr D lce
attr F spr
attr R lru_repr
attr a 1
attr brates 0.3_0.7_1.5_2.5_3.5
attr configname General
attr ctlg 1e6
attr datetime 20150722-13:23:51
attr experiment General
attr inifile omnetpp.ini
attr iterationvars "$net=barabasi_100nodes, $rep=3, $lambda=100, $a=1, $ctlg=1e6, $brates=0.3_0.7_1.5_2.5_3.5, $F=spr, $ttl=1000, $D=lce, $R=lru_repr, $C=1e4, $window=60, $variance=0.05, $mytime=1800"
attr iterationvars2 "$net=barabasi_100nodes, $rep=3, $lambda=100, $a=1, $ctlg=1e6, $brates=0.3_0.7_1.5_2.5_3.5, $F=spr, $ttl=1000, $D=lce, $R=lru_repr, $C=1e4, $window=60, $variance=0.05, $mytime=1800, $repetition=0"
attr lambda 100
attr measurement "$net=barabasi_100nodes, $rep=3, $lambda=100, $a=1, $ctlg=1e6, $brates=0.3_0.7_1.5_2.5_3.5, $F=spr, $ttl=1000, $D=lce, $R=lru_repr, $C=1e4, $window=60, $variance=0.05, $mytime=1800"
attr mytime 1800
attr net barabasi_100nodes
attr network networks.${net=barabasi_100nodes}_network
attr processid 32208
attr rep 3
attr repetition 0
attr replication #0
attr resultdir results
attr runnumber 4
attr seedset 3
attr ttl 1000
attr variance 0.05
attr window 60

scalar . 	C 	1e4
scalar . 	a 	1
scalar . 	ctlg 	1e6
scalar . 	lambda 	100
scalar . 	mytime 	1800
scalar . 	rep 	3
scalar . 	ttl 	1000
scalar . 	variance 	0.05
scalar . 	window 	60
scalar barabasi_100nodes_network.content_distribution 	repo-0 	9
scalar barabasi_100nodes_network.content_distribution 	repo-1 	15
scalar barabasi_100nodes_network.content_distribution 	repo-2 	64
scalar barabasi_100nodes_network.content_distribution 	repo-3 	28
scalar barabasi_100nodes_network.content_distribution 	repo-4 	89
scalar barabasi_100nodes_network.content_distribution 	repo-5 	93
scalar barabasi_100nodes_network.content_distribution 	repo-6 	29
scalar barabasi_100nodes_network.content_distribution 	repo-7 	8
scalar barabasi_100nodes_network.content_distribution 	repo-8 	73
scalar barabasi_100nodes_network.content_distribution 	repo-9 	0
scalar barabasi_100nodes_network.content_distribution 	repo-10 	40
scalar barabasi_100nodes_network.content_distribution 	repo-11 	36
scalar barabasi_100nodes_network.content_distribution 	repo-12 	16
scalar barabasi_100nodes_network.content_distribution 	repo-13 	11
scalar barabasi_100nodes_network.content_distribution 	repo-14 	54
scalar barabasi_100nodes_network.content_distribution 	repo-15 	88
scalar barabasi_100nodes_network.content_distribution 	repo-16 	62
scalar barabasi_100nodes_network.content_distribution 	repo-17 	33
scalar barabasi_100nodes_network.content_distribution 	repo-18 	72
scalar barabasi_100nodes_network.content_distribution 	repo-19 	78
scalar barabasi_100nodes_network.content_distribution 	repo-20 	49
scalar barabasi_100nodes_network.content_distribution 	repo-21 	51
scalar barabasi_100nodes_network.content_distribution 	repo-22 	77
scalar barabasi_100nodes_network.content_distribution 	repo-23 	69
scalar barabasi_100nodes_network.content_distribution 	repo-24 	13
scalar barabasi_100nodes_network.content_distribution 	repo-25 	25
scalar barabasi_100nodes_network.content_distribution 	repo-26 	92
scalar barabasi_100nodes_network.content_distribution 	repo-27 	86
scalar barabasi_100nodes_network.content_distribution 	repo-28 	30
scalar barabasi_100nodes_network.content_distribution 	repo-29 	12
scalar barabasi_100nodes_network.content_distribution 	repo-30 	65
scalar barabasi_100nodes_network.content_distribution 	repo-31 	31
scalar barabasi_100nodes_network.content_distribution 	repo-32 	57
scalar barabasi_100nodes_network.content_distribution 	repo-33 	27
scalar barabasi_100nodes_network.content_distribution 	repo-34 	18
scalar barabasi_100nodes_network.content_distribution 	repo-35 	22
scalar barabasi_100nodes_network.content_distribution 	repo-36 	23
scalar barabasi_100nodes_network.content_distribution 	repo-37 	94
scalar barabasi_100nodes_network.content_distribution 	repo-38 	74
scalar barabasi_100nodes_network.content_distribution 	repo-39 	80
scalar barabasi_100nodes_network.content_distribution 	repo-40 	71
scalar barabasi_100nodes_network.content_distribution 	repo-41 	17
scalar barabasi_100nodes_network.content_distribution 	repo-42 	46
scalar barabasi_100nodes_network.content_distribution 	repo-43 	7
scalar barabasi_100nodes_network.content_distribution 	repo-44 	75
scalar barabasi_100nodes_network.content_distribution 	repo-45 	84
scalar barabasi_100nodes_network.content_distribution 	repo-46 	96
scalar barabasi_100nodes_network.content_distribution 	repo-47 	44
scalar barabasi_100nodes_network.content_distribution 	repo-48 	5
scalar barabasi_100nodes_network.content_distribution 	repo-49 	4
scalar barabasi_100nodes_network.content_distribution 	repo-50 	50
scalar barabasi_100nodes_network.content_distribution 	repo-51 	34
scalar barabasi_100nodes_network.content_distribution 	repo-52 	6
scalar barabasi_100nodes_network.content_distribution 	repo-53 	85
scalar barabasi_100nodes_network.content_distribution 	repo-54 	79
scalar barabasi_100nodes_network.content_distribution 	repo-55 	42
scalar barabasi_100nodes_network.content_distribution 	repo-56 	97
scalar barabasi_100nodes_network.content_distribution 	repo-57 	45
scalar barabasi_100nodes_network.content_distribution 	repo-58 	37
scalar barabasi_100nodes_network.content_distribution 	repo-59 	3
scalar barabasi_100nodes_network.content_distribution 	repo-60 	82
scalar barabasi_100nodes_network.content_distribution 	repo-61 	14
scalar barabasi_100nodes_network.content_distribution 	repo-62 	53
scalar barabasi_100nodes_network.content_distribution 	repo-63 	48
scalar barabasi_100nodes_network.content_distribution 	repo-64 	32
scalar barabasi_100nodes_network.content_distribution 	repo-65 	81
scalar barabasi_100nodes_network.content_distribution 	repo-66 	41
scalar barabasi_100nodes_network.content_distribution 	repo-67 	90
scalar barabasi_100nodes_network.content_distribution 	repo-68 	38
scalar barabasi_100nodes_network.content_distribution 	repo-69 	66
scalar barabasi_100nodes_network.content_distribution 	repo-70 	67
scalar barabasi_100nodes_network.content_distribution 	repo-71 	95
scalar barabasi_100nodes_network.content_distribution 	repo-72 	99
scalar barabasi_100nodes_network.content_distribution 	repo-73 	21
scalar barabasi_100nodes_network.content_distribution 	repo-74 	43
scalar barabasi_100nodes_network.content_distribution 	repo-75 	87
scalar barabasi_100nodes_network.content_distribution 	repo-76 	39
scalar barabasi_100nodes_network.content_distribution 	repo-77 	91
scalar barabasi_100nodes_network.content_distribution 	repo-78 	52
scalar barabasi_100nodes_network.content_distribution 	repo-79 	76
scalar barabasi_100nodes_network.content_distribution 	repo-80 	68
scalar barabasi_100nodes_network.content_distribution 	repo-81 	70
scalar barabasi_100nodes_network.content_distribution 	repo-82 	2
scalar barabasi_100nodes_network.content_distribution 	repo-83 	58
scalar barabasi_100nodes_network.content_distribution 	repo-84 	1
scalar barabasi_100nodes_network.content_distribution 	repo-85 	63
scalar barabasi_100nodes_network.content_distribution 	repo-86 	83
scalar barabasi_100nodes_network.content_distribution 	repo-87 	55
scalar barabasi_100nodes_network.content_distribution 	repo-88 	20
scalar barabasi_100nodes_network.content_distribution 	repo-89 	60
scalar barabasi_100nodes_network.content_distribution 	repo-90 	61
scalar barabasi_100nodes_network.content_distribution 	repo-91 	19
scalar barabasi_100nodes_network.content_distribution 	repo-92 	35
scalar barabasi_100nodes_network.content_distribution 	repo-93 	10
scalar barabasi_100nodes_network.content_distribution 	repo-94 	59
scalar barabasi_100nodes_network.content_distribution 	repo-95 	98
scalar barabasi_100nodes_network.content_distribution 	repo-96 	56
scalar barabasi_100nodes_network.content_distribution 	repo-97 	26
scalar barabasi_100nodes_network.content_distribution 	repo-98 	47
scalar barabasi_100nodes_network.content_distribution 	repo-99 	24
scalar barabasi_100nodes_network.content_distribution 	client-0 	72
scalar barabasi_100nodes_network.content_distribution 	client-1 	54
scalar barabasi_100nodes_network.content_distribution 	client-2 	80
scalar barabasi_100nodes_network.content_distribution 	client-3 	21
scalar barabasi_100nodes_network.content_distribution 	client-4 	19
scalar barabasi_100nodes_network.content_distribution 	client-5 	95
scalar barabasi_100nodes_network.content_distribution 	client-6 	3
scalar barabasi_100nodes_network.content_distribution 	client-7 	98
scalar barabasi_100nodes_network.content_distribution 	client-8 	25
scalar barabasi_100nodes_network.content_distribution 	client-9 	41
scalar barabasi_100nodes_network.content_distribution 	client-10 	14
scalar barabasi_100nodes_network.content_distribution 	client-11 	73
scalar barabasi_100nodes_network.content_distribution 	client-12 	71
scalar barabasi_100nodes_network.content_distribution 	client-13 	38
scalar barabasi_100nodes_network.content_distribution 	client-14 	49
scalar barabasi_100nodes_network.content_distribution 	client-15 	22
scalar barabasi_100nodes_network.content_distribution 	client-16 	97
scalar barabasi_100nodes_network.content_distribution 	client-17 	47
scalar barabasi_100nodes_network.content_distribution 	client-18 	31
scalar barabasi_100nodes_network.content_distribution 	client-19 	46
scalar barabasi_100nodes_network.content_distribution 	client-20 	5
scalar barabasi_100nodes_network.content_distribution 	client-21 	76
scalar barabasi_100nodes_network.content_distribution 	client-22 	16
scalar barabasi_100nodes_network.content_distribution 	client-23 	92
scalar barabasi_100nodes_network.content_distribution 	client-24 	20
scalar barabasi_100nodes_network.content_distribution 	client-25 	82
scalar barabasi_100nodes_network.content_distribution 	client-26 	9
scalar barabasi_100nodes_network.content_distribution 	client-27 	56
scalar barabasi_100nodes_network.content_distribution 	client-28 	37
scalar barabasi_100nodes_network.content_distribution 	client-29 	6
scalar barabasi_100nodes_network.content_distribution 	client-30 	30
scalar barabasi_100nodes_network.content_distribution 	client-31 	67
scalar barabasi_100nodes_network.content_distribution 	client-32 	70
scalar barabasi_100nodes_network.content_distribution 	client-33 	53
scalar barabasi_100nodes_network.content_distribution 	client-34 	13
scalar barabasi_100nodes_network.content_distribution 	client-35 	10
scalar barabasi_100nodes_network.content_distribution 	client-36 	60
scalar barabasi_100nodes_network.content_distribution 	client-37 	33
scalar barabasi_100nodes_network.content_distribution 	client-38 	42
scalar barabasi_100nodes_network.content_distribution 	client-39 	0
scalar barabasi_100nodes_network.content_distribution 	client-40 	88
scalar barabasi_100nodes_network.content_distribution 	client-41 	36
scalar barabasi_100nodes_network.content_distribution 	client-42 	87
scalar barabasi_100nodes_network.content_distribution 	client-43 	66
scalar barabasi_100nodes_network.content_distribution 	client-44 	55
scalar barabasi_100nodes_network.content_distribution 	client-45 	17
scalar barabasi_100nodes_network.content_distribution 	client-46 	1
scalar barabasi_100nodes_network.content_distribution 	client-47 	51
scalar barabasi_100nodes_network.content_distribution 	client-48 	77
scalar barabasi_100nodes_network.content_distribution 	client-49 	7
scalar barabasi_100nodes_network.content_distribution 	client-50 	26
scalar barabasi_100nodes_network.content_distribution 	client-51 	58
scalar barabasi_100nodes_network.content_distribution 	client-52 	90
scalar barabasi_100nodes_network.content_distribution 	client-53 	40
scalar barabasi_100nodes_network.content_distribution 	client-54 	2
scalar barabasi_100nodes_network.content_distribution 	client-55 	23
scalar barabasi_100nodes_network.content_distribution 	client-56 	65
scalar barabasi_100nodes_network.content_distribution 	client-57 	4
scalar barabasi_100nodes_network.content_distribution 	client-58 	78
scalar barabasi_100nodes_network.content_distribution 	client-59 	99
scalar barabasi_100nodes_network.content_distribution 	client-60 	59
scalar barabasi_100nodes_network.content_distribution 	client-61 	86
scalar barabasi_100nodes_network.content_distribution 	client-62 	44
scalar barabasi_100nodes_network.content_distribution 	client-63 	35
scalar barabasi_100nodes_network.content_distribution 	client-64 	57
scalar barabasi_100nodes_network.content_distribution 	client-65 	52
scalar barabasi_100nodes_network.content_distribution 	client-66 	29
scalar barabasi_100nodes_network.content_distribution 	client-67 	32
scalar barabasi_100nodes_network.content_distribution 	client-68 	84
scalar barabasi_100nodes_network.content_distribution 	client-69 	75
scalar barabasi_100nodes_network.content_distribution 	client-70 	12
scalar barabasi_100nodes_network.content_distribution 	client-71 	96
scalar barabasi_100nodes_network.content_distribution 	client-72 	39
scalar barabasi_100nodes_network.content_distribution 	client-73 	69
scalar barabasi_100nodes_network.content_distribution 	client-74 	24
scalar barabasi_100nodes_network.content_distribution 	client-75 	83
scalar barabasi_100nodes_network.content_distribution 	client-76 	15
scalar barabasi_100nodes_network.content_distribution 	client-77 	63
scalar barabasi_100nodes_network.content_distribution 	client-78 	79
scalar barabasi_100nodes_network.content_distribution 	client-79 	89
scalar barabasi_100nodes_network.content_distribution 	client-80 	94
scalar barabasi_100nodes_network.content_distribution 	client-81 	18
scalar barabasi_100nodes_network.content_distribution 	client-82 	74
scalar barabasi_100nodes_network.content_distribution 	client-83 	62
scalar barabasi_100nodes_network.content_distribution 	client-84 	93
scalar barabasi_100nodes_network.content_distribution 	client-85 	48
scalar barabasi_100nodes_network.content_distribution 	client-86 	64
scalar barabasi_100nodes_network.content_distribution 	client-87 	8
scalar barabasi_100nodes_network.content_distribution 	client-88 	85
scalar barabasi_100nodes_network.content_distribution 	client-89 	81
scalar barabasi_100nodes_network.content_distribution 	client-90 	28
scalar barabasi_100nodes_network.content_distribution 	client-91 	34
scalar barabasi_100nodes_network.content_distribution 	client-92 	45
scalar barabasi_100nodes_network.content_distribution 	client-93 	68
scalar barabasi_100nodes_network.content_distribution 	client-94 	43
scalar barabasi_100nodes_network.content_distribution 	client-95 	91
scalar barabasi_100nodes_network.content_distribution 	client-96 	50
scalar barabasi_100nodes_network.content_distribution 	client-97 	27
scalar barabasi_100nodes_network.content_distribution 	client-98 	61
scalar barabasi_100nodes_network.content_distribution 	client-99 	11
scalar barabasi_100nodes_network.content_distribution 	repo-0_card 	250071
scalar barabasi_100nodes_network.content_distribution 	repo-0_price 	0
scalar barabasi_100nodes_network.content_distribution 	repo-1_card 	250237
scalar barabasi_100nodes_network.content_distribution 	repo-1_price 	0
scalar barabasi_100nodes_network.content_distribution 	repo-2_card 	249820
scalar barabasi_100nodes_network.content_distribution 	repo-2_price 	0
scalar barabasi_100nodes_network.content_distribution 	repo-3_card 	249872
scalar barabasi_100nodes_network.content_distribution 	repo-3_price 	0
scalar barabasi_100nodes_network.content_distribution 	repo-4_card 	0
scalar barabasi_100nodes_network.content_distribution 	repo-4_price 	0
scalar barabasi_100nodes_network.content_distribution 	repo-5_card 	0
scalar barabasi_100nodes_network.content_distribution 	repo-5_price 	0
scalar barabasi_100nodes_network.content_distribution 	repo-6_card 	0
scalar barabasi_100nodes_network.content_distribution 	repo-6_price 	0
scalar barabasi_100nodes_network.content_distribution 	repo-7_card 	0
scalar barabasi_100nodes_network.content_distribution 	repo-7_price 	0
scalar barabasi_100nodes_network.content_distribution 	repo-8_card 	0
scalar barabasi_100nodes_network.content_distribution 	repo-8_price 	0
scalar barabasi_100nodes_network.content_distribution 	repo-9_card 	0
scalar barabasi_100nodes_network.content_distribution 	repo-9_price 	0
scalar barabasi_100nodes_network.content_distribution 	repo-10_card 	0
scalar barabasi_100nodes_network.content_distribution 	repo-10_price 	0
scalar barabasi_100nodes_network.content_distribution 	repo-11_card 	0
scalar barabasi_100nodes_network.content_distribution 	repo-11_price 	0
scalar barabasi_100nodes_network.content_distribution 	repo-12_card 	0
scalar barabasi_100nodes_network.content_distribution 	repo-12_price 	0
scalar barabasi_100nodes_network.content_distribution 	repo-13_card 	0
scalar barabasi_100nodes_network.content_distribution 	repo-13_price 	0
scalar barabasi_100nodes_network.content_distribution 	repo-14_card 	0
scalar barabasi_100nodes_network.content_distribution 	repo-14_price 	0
scalar barabasi_100nodes_network.content_distribution 	repo-15_card 	0
scalar barabasi_100nodes_network.content_distribution 	repo-15_price 	0
scalar barabasi_100nodes_network.content_distribution 	repo-16_card 	0
scalar barabasi_100nodes_network.content_distribution 	repo-16_price 	0
scalar barabasi_100nodes_network.content_distribution 	repo-17_card 	0
scalar barabasi_100nodes_network.content_distribution 	repo-17_price 	0
scalar barabasi_100nodes_network.content_distribution 	repo-18_card 	0
scalar barabasi_100nodes_network.content_distribution 	repo-18_price 	0
scalar barabasi_100nodes_network.content_distribution 	repo-19_card 	0
scalar barabasi_100nodes_network.content_distribution 	repo-19_price 	0
scalar barabasi_100nodes_network.content_distribution 	repo-20_card 	0
scalar barabasi_100nodes_network.content_distribution 	repo-20_price 	0
scalar barabasi_100nodes_network.content_distribution 	repo-21_card 	0
scalar barabasi_100nodes_network.content_distribution 	repo-21_price 	0
scalar barabasi_100nodes_network.content_distribution 	repo-22_card 	0
scalar barabasi_100nodes_network.content_distribution 	repo-22_price 	0
scalar barabasi_100nodes_network.content_distribution 	repo-23_card 	0
scalar barabasi_100nodes_network.content_distribution 	repo-23_price 	0
scalar barabasi_100nodes_network.content_distribution 	repo-24_card 	0
scalar barabasi_100nodes_network.content_distribution 	repo-24_price 	0
scalar barabasi_100nodes_network.content_distribution 	repo-25_card 	0
scalar barabasi_100nodes_network.content_distribution 	repo-25_price 	0
scalar barabasi_100nodes_network.content_distribution 	repo-26_card 	0
scalar barabasi_100nodes_network.content_distribution 	repo-26_price 	0
scalar barabasi_100nodes_network.content_distribution 	repo-27_card 	0
scalar barabasi_100nodes_network.content_distribution 	repo-27_price 	0
scalar barabasi_100nodes_network.content_distribution 	repo-28_card 	0
scalar barabasi_100nodes_network.content_distribution 	repo-28_price 	0
scalar barabasi_100nodes_network.content_distribution 	repo-29_card 	0
scalar barabasi_100nodes_network.content_distribution 	repo-29_price 	0
scalar barabasi_100nodes_network.content_distribution 	repo-30_card 	0
scalar barabasi_100nodes_network.content_distribution 	repo-30_price 	0
scalar barabasi_100nodes_network.content_distribution 	repo-31_card 	0
scalar barabasi_100nodes_network.content_distribution 	repo-31_price 	0
scalar barabasi_100nodes_network.content_distribution 	repo-32_card 	0
scalar barabasi_100nodes_network.content_distribution 	repo-32_price 	0
scalar barabasi_100nodes_network.content_distribution 	repo-33_card 	0
scalar barabasi_100nodes_network.content_distribution 	repo-33_price 	0
scalar barabasi_100nodes_network.content_distribution 	repo-34_card 	0
scalar barabasi_100nodes_network.content_distribution 	repo-34_price 	0
scalar barabasi_100nodes_network.content_distribution 	repo-35_card 	0
scalar barabasi_100nodes_network.content_distribution 	repo-35_price 	0
scalar barabasi_100nodes_network.content_distribution 	repo-36_card 	0
scalar barabasi_100nodes_network.content_distribution 	repo-36_price 	0
scalar barabasi_100nodes_network.content_distribution 	repo-37_card 	0
scalar barabasi_100nodes_network.content_distribution 	repo-37_price 	0
scalar barabasi_100nodes_network.content_distribution 	repo-38_card 	0
scalar barabasi_100nodes_network.content_distribution 	repo-38_price 	0
scalar barabasi_100nodes_network.content_distribution 	repo-39_card 	0
scalar barabasi_100nodes_network.content_distribution 	repo-39_price 	0
scalar barabasi_100nodes_network.content_distribution 	repo-40_card 	0
scalar barabasi_100nodes_network.content_distribution 	repo-40_price 	0
scalar barabasi_100nodes_network.content_distribution 	repo-41_card 	0
scalar barabasi_100nodes_network.content_distribution 	repo-41_price 	0
scalar barabasi_100nodes_network.content_distribution 	repo-42_card 	0
scalar barabasi_100nodes_network.content_distribution 	repo-42_price 	0
scalar barabasi_100nodes_network.content_distribution 	repo-43_card 	0
scalar barabasi_100nodes_network.content_distribution 	repo-43_price 	0
scalar barabasi_100nodes_network.content_distribution 	repo-44_card 	0
scalar barabasi_100nodes_network.content_distribution 	repo-44_price 	0
scalar barabasi_100nodes_network.content_distribution 	repo-45_card 	0
scalar barabasi_100nodes_network.content_distribution 	repo-45_price 	0
scalar barabasi_100nodes_network.content_distribution 	repo-46_card 	0
scalar barabasi_100nodes_network.content_distribution 	repo-46_price 	0
scalar barabasi_100nodes_network.content_distribution 	repo-47_card 	0
scalar barabasi_100nodes_network.content_distribution 	repo-47_price 	0
scalar barabasi_100nodes_network.content_distribution 	repo-48_card 	0
scalar barabasi_100nodes_network.content_distribution 	repo-48_price 	0
scalar barabasi_100nodes_network.content_distribution 	repo-49_card 	0
scalar barabasi_100nodes_network.content_distribution 	repo-49_price 	0
scalar barabasi_100nodes_network.content_distribution 	repo-50_card 	0
scalar barabasi_100nodes_network.content_distribution 	repo-50_price 	0
scalar barabasi_100nodes_network.content_distribution 	repo-51_card 	0
scalar barabasi_100nodes_network.content_distribution 	repo-51_price 	0
scalar barabasi_100nodes_network.content_distribution 	repo-52_card 	0
scalar barabasi_100nodes_network.content_distribution 	repo-52_price 	0
scalar barabasi_100nodes_network.content_distribution 	repo-53_card 	0
scalar barabasi_100nodes_network.content_distribution 	repo-53_price 	0
scalar barabasi_100nodes_network.content_distribution 	repo-54_card 	0
scalar barabasi_100nodes_network.content_distribution 	repo-54_price 	0
scalar barabasi_100nodes_network.content_distribution 	repo-55_card 	0
scalar barabasi_100nodes_network.content_distribution 	repo-55_price 	0
scalar barabasi_100nodes_network.content_distribution 	repo-56_card 	0
scalar barabasi_100nodes_network.content_distribution 	repo-56_price 	0
scalar barabasi_100nodes_network.content_distribution 	repo-57_card 	0
scalar barabasi_100nodes_network.content_distribution 	repo-57_price 	0
scalar barabasi_100nodes_network.content_distribution 	repo-58_card 	0
scalar barabasi_100nodes_network.content_distribution 	repo-58_price 	0
scalar barabasi_100nodes_network.content_distribution 	repo-59_card 	0
scalar barabasi_100nodes_network.content_distribution 	repo-59_price 	0
scalar barabasi_100nodes_network.content_distribution 	repo-60_card 	0
scalar barabasi_100nodes_network.content_distribution 	repo-60_price 	0
scalar barabasi_100nodes_network.content_distribution 	repo-61_card 	0
scalar barabasi_100nodes_network.content_distribution 	repo-61_price 	0
scalar barabasi_100nodes_network.content_distribution 	repo-62_card 	0
scalar barabasi_100nodes_network.content_distribution 	repo-62_price 	0
scalar barabasi_100nodes_network.content_distribution 	repo-63_card 	0
scalar barabasi_100nodes_network.content_distribution 	repo-63_price 	0
scalar barabasi_100nodes_network.content_distribution 	repo-64_card 	0
scalar barabasi_100nodes_network.content_distribution 	repo-64_price 	0
scalar barabasi_100nodes_network.content_distribution 	repo-65_card 	0
scalar barabasi_100nodes_network.content_distribution 	repo-65_price 	0
scalar barabasi_100nodes_network.content_distribution 	repo-66_card 	0
scalar barabasi_100nodes_network.content_distribution 	repo-66_price 	0
scalar barabasi_100nodes_network.content_distribution 	repo-67_card 	0
scalar barabasi_100nodes_network.content_distribution 	repo-67_price 	0
scalar barabasi_100nodes_network.content_distribution 	repo-68_card 	0
scalar barabasi_100nodes_network.content_distribution 	repo-68_price 	0
scalar barabasi_100nodes_network.content_distribution 	repo-69_card 	0
scalar barabasi_100nodes_network.content_distribution 	repo-69_price 	0
scalar barabasi_100nodes_network.content_distribution 	repo-70_card 	0
scalar barabasi_100nodes_network.content_distribution 	repo-70_price 	0
scalar barabasi_100nodes_network.content_distribution 	repo-71_card 	0
scalar barabasi_100nodes_network.content_distribution 	repo-71_price 	0
scalar barabasi_100nodes_network.content_distribution 	repo-72_card 	0
scalar barabasi_100nodes_network.content_distribution 	repo-72_price 	0
scalar barabasi_100nodes_network.content_distribution 	repo-73_card 	0
scalar barabasi_100nodes_network.content_distribution 	repo-73_price 	0
scalar barabasi_100nodes_network.content_distribution 	repo-74_card 	0
scalar barabasi_100nodes_network.content_distribution 	repo-74_price 	0
scalar barabasi_100nodes_network.content_distribution 	repo-75_card 	0
scalar barabasi_100nodes_network.content_distribution 	repo-75_price 	0
scalar barabasi_100nodes_network.content_distribution 	repo-76_card 	0
scalar barabasi_100nodes_network.content_distribution 	repo-76_price 	0
scalar barabasi_100nodes_network.content_distribution 	repo-77_card 	0
scalar barabasi_100nodes_network.content_distribution 	repo-77_price 	0
scalar barabasi_100nodes_network.content_distribution 	repo-78_card 	0
scalar barabasi_100nodes_network.content_distribution 	repo-78_price 	0
scalar barabasi_100nodes_network.content_distribution 	repo-79_card 	0
scalar barabasi_100nodes_network.content_distribution 	repo-79_price 	0
scalar barabasi_100nodes_network.content_distribution 	repo-80_card 	0
scalar barabasi_100nodes_network.content_distribution 	repo-80_price 	0
scalar barabasi_100nodes_network.content_distribution 	repo-81_card 	0
scalar barabasi_100nodes_network.content_distribution 	repo-81_price 	0
scalar barabasi_100nodes_network.content_distribution 	repo-82_card 	0
scalar barabasi_100nodes_network.content_distribution 	repo-82_price 	0
scalar barabasi_100nodes_network.content_distribution 	repo-83_card 	0
scalar barabasi_100nodes_network.content_distribution 	repo-83_price 	0
scalar barabasi_100nodes_network.content_distribution 	repo-84_card 	0
scalar barabasi_100nodes_network.content_distribution 	repo-84_price 	0
scalar barabasi_100nodes_network.content_distribution 	repo-85_card 	0
scalar barabasi_100nodes_network.content_distribution 	repo-85_price 	0
scalar barabasi_100nodes_network.content_distribution 	repo-86_card 	0
scalar barabasi_100nodes_network.content_distribution 	repo-86_price 	0
scalar barabasi_100nodes_network.content_distribution 	repo-87_card 	0
scalar barabasi_100nodes_network.content_distribution 	repo-87_price 	0
scalar barabasi_100nodes_network.content_distribution 	repo-88_card 	0
scalar barabasi_100nodes_network.content_distribution 	repo-88_price 	0
scalar barabasi_100nodes_network.content_distribution 	repo-89_card 	0
scalar barabasi_100nodes_network.content_distribution 	repo-89_price 	0
scalar barabasi_100nodes_network.content_distribution 	repo-90_card 	0
scalar barabasi_100nodes_network.content_distribution 	repo-90_price 	0
scalar barabasi_100nodes_network.content_distribution 	repo-91_card 	0
scalar barabasi_100nodes_network.content_distribution 	repo-91_price 	0
scalar barabasi_100nodes_network.content_distribution 	repo-92_card 	0
scalar barabasi_100nodes_network.content_distribution 	repo-92_price 	0
scalar barabasi_100nodes_network.content_distribution 	repo-93_card 	0
scalar barabasi_100nodes_network.content_distribution 	repo-93_price 	0
scalar barabasi_100nodes_network.content_distribution 	repo-94_card 	0
scalar barabasi_100nodes_network.content_distribution 	repo-94_price 	0
scalar barabasi_100nodes_network.content_distribution 	repo-95_card 	0
scalar barabasi_100nodes_network.content_distribution 	repo-95_price 	0
scalar barabasi_100nodes_network.content_distribution 	repo-96_card 	0
scalar barabasi_100nodes_network.content_distribution 	repo-96_price 	0
scalar barabasi_100nodes_network.content_distribution 	repo-97_card 	0
scalar barabasi_100nodes_network.content_distribution 	repo-97_price 	0
scalar barabasi_100nodes_network.content_distribution 	repo-98_card 	0
scalar barabasi_100nodes_network.content_distribution 	repo-98_price 	0
scalar barabasi_100nodes_network.content_distribution 	repo-99_card 	0
scalar barabasi_100nodes_network.content_distribution 	repo-99_price 	0
scalar barabasi_100nodes_network.statistics 	stabilization_time 	36060
scalar barabasi_100nodes_network.statistics 	p_hit 	0.31609112011878
scalar barabasi_100nodes_network.statistics 	interests 	459891.85
scalar barabasi_100nodes_network.statistics 	data 	246678.14
scalar barabasi_100nodes_network.statistics 	hdistance 	1.259105706466
scalar barabasi_100nodes_network.statistics 	avg_time 	0
scalar barabasi_100nodes_network.statistics 	downloads 	18000271
scalar barabasi_100nodes_network.statistics 	total_cost 	0
scalar barabasi_100nodes_network.statistics 	total_replicas 	1000000
scalar barabasi_100nodes_network.statistics 	"representations_downloaded 0.325417:0.032759:0.0239403:0.0234215:0.594462:" 	0
scalar barabasi_100nodes_network.statistics 	"slots_per_representation 100:233:500:833:1167:" 	0
scalar barabasi_100nodes_network.statistics 	inner_hit 	0.62308356357524
scalar barabasi_100nodes_network.statistics 	execution_time 	18723
scalar barabasi_100nodes_network.node[0].core_layer 	interests[0] 	5645059
scalar barabasi_100nodes_network.node[0].core_layer 	data[0] 	4957293
scalar barabasi_100nodes_network.node[0].core_layer 	slots_sent[face$o[1]->client[0]] 	118792183
scalar barabasi_100nodes_network.node[0].core_layer 	slots_sent[face$o[2]->node[1]] 	24538660
scalar barabasi_100nodes_network.node[0].core_layer 	slots_sent[face$o[3]->node[2]] 	986668353
scalar barabasi_100nodes_network.node[0].core_layer 	slots_sent[face$o[4]->node[5]] 	78663923
scalar barabasi_100nodes_network.node[0].core_layer 	slots_sent[face$o[5]->node[10]] 	46288233
scalar barabasi_100nodes_network.node[0].core_layer 	slots_sent[face$o[6]->node[11]] 	24340729
scalar barabasi_100nodes_network.node[0].core_layer 	slots_sent[face$o[7]->node[15]] 	43437829
scalar barabasi_100nodes_network.node[0].core_layer 	slots_sent[face$o[8]->node[21]] 	56066871
scalar barabasi_100nodes_network.node[0].core_layer 	slots_sent[face$o[9]->node[22]] 	17403755
scalar barabasi_100nodes_network.node[0].core_layer 	slots_sent[face$o[10]->node[28]] 	17125627
scalar barabasi_100nodes_network.node[0].core_layer 	slots_sent[face$o[11]->node[37]] 	24378094
scalar barabasi_100nodes_network.node[0].core_layer 	slots_sent[face$o[12]->node[44]] 	24569200
scalar barabasi_100nodes_network.node[0].core_layer 	slots_sent[face$o[13]->node[58]] 	46506137
scalar barabasi_100nodes_network.node[0].core_layer 	slots_sent[face$o[14]->node[73]] 	46107042
scalar barabasi_100nodes_network.node[0].core_layer 	slots_sent[face$o[15]->node[74]] 	24651555
scalar barabasi_100nodes_network.node[0].core_layer 	slots_sent[face$o[16]->node[93]] 	24739565
scalar barabasi_100nodes_network.node[0].content_store 	p_hit[0] 	0.12183504193667
scalar barabasi_100nodes_network.node[0].content_store 	hits[0] 	687766
scalar barabasi_100nodes_network.node[0].content_store 	misses[0] 	4957293
scalar barabasi_100nodes_network.node[0].content_store 	decision_yes[0] 	4957293
scalar barabasi_100nodes_network.node[0].content_store 	decision_no[0] 	0
scalar barabasi_100nodes_network.node[0].content_store 	decision_ratio[0] 	1
scalar barabasi_100nodes_network.node[0].content_store 	"representation_breakdown[0] 27613:5674:2678:1932:3974:" 	0
scalar barabasi_100nodes_network.node[0].proactive_component 	hdistance[0].proactive_component 	2.0687875852433
scalar barabasi_100nodes_network.node[0].proactive_component 	downloads[0].proactive_component 	8915068
scalar barabasi_100nodes_network.node[0].proactive_component 	avg_time[0].proactive_component 	0
scalar barabasi_100nodes_network.node[1].core_layer 	interests[1] 	193974
scalar barabasi_100nodes_network.node[1].core_layer 	data[1] 	74371
scalar barabasi_100nodes_network.node[1].core_layer 	slots_sent[face$o[1]->client[1]] 	143064949
scalar barabasi_100nodes_network.node[1].core_layer 	slots_sent[face$o[2]->node[0]] 	0
scalar barabasi_100nodes_network.node[1].content_store 	p_hit[1] 	0.6165929454463
scalar barabasi_100nodes_network.node[1].content_store 	hits[1] 	119603
scalar barabasi_100nodes_network.node[1].content_store 	misses[1] 	74371
scalar barabasi_100nodes_network.node[1].content_store 	decision_yes[1] 	74371
scalar barabasi_100nodes_network.node[1].content_store 	decision_no[1] 	0
scalar barabasi_100nodes_network.node[1].content_store 	decision_ratio[1] 	1
scalar barabasi_100nodes_network.node[1].content_store 	"representation_breakdown[1] 23694:3207:1616:1364:5663:" 	0
scalar barabasi_100nodes_network.node[1].proactive_component 	hdistance[1].proactive_component 	2.5850747640101
scalar barabasi_100nodes_network.node[1].proactive_component 	downloads[1].proactive_component 	282957
scalar barabasi_100nodes_network.node[1].proactive_component 	avg_time[1].proactive_component 	0
scalar barabasi_100nodes_network.node[2].core_layer 	interests[2] 	5822852
scalar barabasi_100nodes_network.node[2].core_layer 	data[2] 	4851759
scalar barabasi_100nodes_network.node[2].core_layer 	slots_sent[face$o[1]->client[2]] 	121129804
scalar barabasi_100nodes_network.node[2].core_layer 	slots_sent[face$o[2]->node[0]] 	150450482
scalar barabasi_100nodes_network.node[2].core_layer 	slots_sent[face$o[3]->node[3]] 	46344490
scalar barabasi_100nodes_network.node[2].core_layer 	slots_sent[face$o[4]->node[4]] 	117856180
scalar barabasi_100nodes_network.node[2].core_layer 	slots_sent[face$o[5]->node[6]] 	24269914
scalar barabasi_100nodes_network.node[2].core_layer 	slots_sent[face$o[6]->node[7]] 	270965813
scalar barabasi_100nodes_network.node[2].core_layer 	slots_sent[face$o[7]->node[8]] 	169453681
scalar barabasi_100nodes_network.node[2].core_layer 	slots_sent[face$o[8]->node[13]] 	102217843
scalar barabasi_100nodes_network.node[2].core_layer 	slots_sent[face$o[9]->node[16]] 	147682180
scalar barabasi_100nodes_network.node[2].core_layer 	slots_sent[face$o[10]->node[18]] 	60004139
scalar barabasi_100nodes_network.node[2].core_layer 	slots_sent[face$o[11]->node[25]] 	46153930
scalar barabasi_100nodes_network.node[2].core_layer 	slots_sent[face$o[12]->node[26]] 	63980283
scalar barabasi_100nodes_network.node[2].core_layer 	slots_sent[face$o[13]->node[29]] 	24608653
scalar barabasi_100nodes_network.node[2].core_layer 	slots_sent[face$o[14]->node[32]] 	38381365
scalar barabasi_100nodes_network.node[2].core_layer 	slots_sent[face$o[15]->node[33]] 	24374439
scalar barabasi_100nodes_network.node[2].core_layer 	slots_sent[face$o[16]->node[34]] 	24494917
scalar barabasi_100nodes_network.node[2].core_layer 	slots_sent[face$o[17]->node[36]] 	46104089
scalar barabasi_100nodes_network.node[2].core_layer 	slots_sent[face$o[18]->node[41]] 	101992927
scalar barabasi_100nodes_network.node[2].core_layer 	slots_sent[face$o[19]->node[45]] 	24649209
scalar barabasi_100nodes_network.node[2].core_layer 	slots_sent[face$o[20]->node[59]] 	24227465
scalar barabasi_100nodes_network.node[2].core_layer 	slots_sent[face$o[21]->node[62]] 	66838892
scalar barabasi_100nodes_network.node[2].core_layer 	slots_sent[face$o[22]->node[79]] 	24552857
scalar barabasi_100nodes_network.node[2].content_store 	p_hit[2] 	0.16677274297887
scalar barabasi_100nodes_network.node[2].content_store 	hits[2] 	971093
scalar barabasi_100nodes_network.node[2].content_store 	misses[2] 	4851759
scalar barabasi_100nodes_network.node[2].content_store 	decision_yes[2] 	4851759
scalar barabasi_100nodes_network.node[2].content_store 	decision_no[2] 	0
scalar barabasi_100nodes_network.node[2].content_store 	decision_ratio[2] 	1
scalar barabasi_100nodes_network.node[2].content_store 	"representation_breakdown[2] 26412:5312:2605:1988:4141:" 	0
scalar barabasi_100nodes_network.node[2].proactive_component 	hdistance[2].proactive_component 	2.4990256219666
scalar barabasi_100nodes_network.node[2].proactive_component 	downloads[2].proactive_component 	12285786
scalar barabasi_100nodes_network.node[2].proactive_component 	avg_time[2].proactive_component 	0
scalar barabasi_100nodes_network.node[3].core_layer 	interests[3] 	273636
scalar barabasi_100nodes_network.node[3].core_layer 	data[3] 	143638
scalar barabasi_100nodes_network.node[3].core_layer 	slots_sent[face$o[1]->client[3]] 	141303832
scalar barabasi_100nodes_network.node[3].core_layer 	slots_sent[face$o[2]->node[2]] 	0
scalar barabasi_100nodes_network.node[3].core_layer 	slots_sent[face$o[3]->node[52]] 	24445099
scalar barabasi_100nodes_network.node[3].content_store 	p_hit[3] 	0.47507637883904
scalar barabasi_100nodes_network.node[3].content_store 	hits[3] 	129998
scalar barabasi_100nodes_network.node[3].content_store 	misses[3] 	143638
scalar barabasi_100nodes_network.node[3].content_store 	decision_yes[3] 	143638
scalar barabasi_100nodes_network.node[3].content_store 	decision_no[3] 	0
scalar barabasi_100nodes_network.node[3].content_store 	decision_ratio[3] 	1
scalar barabasi_100nodes_network.node[3].content_store 	"representation_breakdown[3] 24175:3412:1808:1455:5434:" 	0
scalar barabasi_100nodes_network.node[3].proactive_component 	hdistance[3].proactive_component 	2.9629277848008
scalar barabasi_100nodes_network.node[3].proactive_component 	downloads[3].proactive_component 	439035
scalar barabasi_100nodes_network.node[3].proactive_component 	avg_time[3].proactive_component 	0
scalar barabasi_100nodes_network.node[4].core_layer 	interests[4] 	539319
scalar barabasi_100nodes_network.node[4].core_layer 	data[4] 	373323
scalar barabasi_100nodes_network.node[4].core_layer 	slots_sent[face$o[1]->client[4]] 	137534062
scalar barabasi_100nodes_network.node[4].core_layer 	slots_sent[face$o[2]->node[2]] 	0
scalar barabasi_100nodes_network.node[4].core_layer 	slots_sent[face$o[3]->node[27]] 	33670756
scalar barabasi_100nodes_network.node[4].core_layer 	slots_sent[face$o[4]->node[30]] 	46804582
scalar barabasi_100nodes_network.node[4].core_layer 	slots_sent[face$o[5]->node[85]] 	24919418
scalar barabasi_100nodes_network.node[4].content_store 	p_hit[4] 	0.30778815506222
scalar barabasi_100nodes_network.node[4].content_store 	hits[4] 	165996
scalar barabasi_100nodes_network.node[4].content_store 	misses[4] 	373323
scalar barabasi_100nodes_network.node[4].content_store 	decision_yes[4] 	373323
scalar barabasi_100nodes_network.node[4].content_store 	decision_no[4] 	0
scalar barabasi_100nodes_network.node[4].content_store 	decision_ratio[4] 	1
scalar barabasi_100nodes_network.node[4].content_store 	"representation_breakdown[4] 24513:4023:1942:1599:5122:" 	0
scalar barabasi_100nodes_network.node[4].proactive_component 	hdistance[4].proactive_component 	2.9845035709673
scalar barabasi_100nodes_network.node[4].proactive_component 	downloads[4].proactive_component 	936861
scalar barabasi_100nodes_network.node[4].proactive_component 	avg_time[4].proactive_component 	0
scalar barabasi_100nodes_network.node[5].core_layer 	interests[5] 	2085423
scalar barabasi_100nodes_network.node[5].core_layer 	data[5] 	1580441
scalar barabasi_100nodes_network.node[5].core_layer 	slots_sent[face$o[1]->client[5]] 	126901476
scalar barabasi_100nodes_network.node[5].core_layer 	slots_sent[face$o[2]->node[0]] 	430430308
scalar barabasi_100nodes_network.node[5].core_layer 	slots_sent[face$o[3]->node[9]] 	16447262
scalar barabasi_100nodes_network.node[5].core_layer 	slots_sent[face$o[4]->node[35]] 	46404702
scalar barabasi_100nodes_network.node[5].content_store 	p_hit[5] 	0.24214847539324
scalar barabasi_100nodes_network.node[5].content_store 	hits[5] 	504982
scalar barabasi_100nodes_network.node[5].content_store 	misses[5] 	1580441
scalar barabasi_100nodes_network.node[5].content_store 	decision_yes[5] 	1580441
scalar barabasi_100nodes_network.node[5].content_store 	decision_no[5] 	0
scalar barabasi_100nodes_network.node[5].content_store 	decision_ratio[5] 	1
scalar barabasi_100nodes_network.node[5].content_store 	"representation_breakdown[5] 26273:6116:2711:1826:4062:" 	0
scalar barabasi_100nodes_network.node[5].proactive_component 	hdistance[5].proactive_component 	1.9995411777091
scalar barabasi_100nodes_network.node[5].proactive_component 	downloads[5].proactive_component 	6440402
scalar barabasi_100nodes_network.node[5].proactive_component 	avg_time[5].proactive_component 	0
scalar barabasi_100nodes_network.node[6].core_layer 	interests[6] 	194414
scalar barabasi_100nodes_network.node[6].core_layer 	data[6] 	74171
scalar barabasi_100nodes_network.node[6].core_layer 	slots_sent[face$o[1]->client[6]] 	143314195
scalar barabasi_100nodes_network.node[6].core_layer 	slots_sent[face$o[2]->node[2]] 	0
scalar barabasi_100nodes_network.node[6].content_store 	p_hit[6] 	0.61848940919893
scalar barabasi_100nodes_network.node[6].content_store 	hits[6] 	120243
scalar barabasi_100nodes_network.node[6].content_store 	misses[6] 	74171
scalar barabasi_100nodes_network.node[6].content_store 	decision_yes[6] 	74171
scalar barabasi_100nodes_network.node[6].content_store 	decision_no[6] 	0
scalar barabasi_100nodes_network.node[6].content_store 	decision_ratio[6] 	1
scalar barabasi_100nodes_network.node[6].content_store 	"representation_breakdown[6] 24148:3313:1604:1345:5622:" 	0
scalar barabasi_100nodes_network.node[6].proactive_component 	hdistance[6].proactive_component 	2.973692085095
scalar barabasi_100nodes_network.node[6].proactive_component 	downloads[6].proactive_component 	284059
scalar barabasi_100nodes_network.node[6].proactive_component 	avg_time[6].proactive_component 	0
scalar barabasi_100nodes_network.node[7].core_layer 	interests[7] 	1123585
scalar barabasi_100nodes_network.node[7].core_layer 	data[7] 	891464
scalar barabasi_100nodes_network.node[7].core_layer 	slots_sent[face$o[1]->client[7]] 	135243732
scalar barabasi_100nodes_network.node[7].core_layer 	slots_sent[face$o[2]->node[2]] 	0
scalar barabasi_100nodes_network.node[7].core_layer 	slots_sent[face$o[3]->node[23]] 	143607985
scalar barabasi_100nodes_network.node[7].core_layer 	slots_sent[face$o[4]->node[31]] 	88357913
scalar barabasi_100nodes_network.node[7].core_layer 	slots_sent[face$o[5]->node[49]] 	24989151
scalar barabasi_100nodes_network.node[7].core_layer 	slots_sent[face$o[6]->node[90]] 	17384799
scalar barabasi_100nodes_network.node[7].content_store 	p_hit[7] 	0.20658962161296
scalar barabasi_100nodes_network.node[7].content_store 	hits[7] 	232121
scalar barabasi_100nodes_network.node[7].content_store 	misses[7] 	891464
scalar barabasi_100nodes_network.node[7].content_store 	decision_yes[7] 	891464
scalar barabasi_100nodes_network.node[7].content_store 	decision_no[7] 	0
scalar barabasi_100nodes_network.node[7].content_store 	decision_ratio[7] 	1
scalar barabasi_100nodes_network.node[7].content_store 	"representation_breakdown[7] 25930:4597:2172:1669:4738:" 	0
scalar barabasi_100nodes_network.node[7].proactive_component 	hdistance[7].proactive_component 	2.8991189743551
scalar barabasi_100nodes_network.node[7].proactive_component 	downloads[7].proactive_component 	1852727
scalar barabasi_100nodes_network.node[7].proactive_component 	avg_time[7].proactive_component 	0
scalar barabasi_100nodes_network.node[8].core_layer 	interests[8] 	752708
scalar barabasi_100nodes_network.node[8].core_layer 	data[8] 	543028
scalar barabasi_100nodes_network.node[8].core_layer 	slots_sent[face$o[1]->client[8]] 	136043136
scalar barabasi_100nodes_network.node[8].core_layer 	slots_sent[face$o[2]->node[2]] 	0
scalar barabasi_100nodes_network.node[8].core_layer 	slots_sent[face$o[3]->node[12]] 	24922539
scalar barabasi_100nodes_network.node[8].core_layer 	slots_sent[face$o[4]->node[14]] 	25022400
scalar barabasi_100nodes_network.node[8].core_layer 	slots_sent[face$o[5]->node[17]] 	24966004
scalar barabasi_100nodes_network.node[8].core_layer 	slots_sent[face$o[6]->node[39]] 	46805915
scalar barabasi_100nodes_network.node[8].core_layer 	slots_sent[face$o[7]->node[61]] 	25169772
scalar barabasi_100nodes_network.node[8].core_layer 	slots_sent[face$o[8]->node[66]] 	25078576
scalar barabasi_100nodes_network.node[8].content_store 	p_hit[8] 	0.2785675188785
scalar barabasi_100nodes_network.node[8].content_store 	hits[8] 	209680
scalar barabasi_100nodes_network.node[8].content_store 	misses[8] 	543028
scalar barabasi_100nodes_network.node[8].content_store 	decision_yes[8] 	543028
scalar barabasi_100nodes_network.node[8].content_store 	decision_no[8] 	0
scalar barabasi_100nodes_network.node[8].content_store 	decision_ratio[8] 	1
scalar barabasi_100nodes_network.node[8].content_store 	"representation_breakdown[8] 24988:4106:1980:1633:5025:" 	0
scalar barabasi_100nodes_network.node[8].proactive_component 	hdistance[8].proactive_component 	2.9719267780912
scalar barabasi_100nodes_network.node[8].proactive_component 	downloads[8].proactive_component 	1478847
scalar barabasi_100nodes_network.node[8].proactive_component 	avg_time[8].proactive_component 	0
scalar barabasi_100nodes_network.node[9].core_layer 	interests[9] 	1536809
scalar barabasi_100nodes_network.node[9].core_layer 	repo_load[9] 	1384130
scalar barabasi_100nodes_network.node[9].core_layer 	data[9] 	52785
scalar barabasi_100nodes_network.node[9].core_layer 	slots_sent[face$o[1]->client[9]] 	119337212
scalar barabasi_100nodes_network.node[9].core_layer 	slots_sent[face$o[2]->node[5]] 	385009890
scalar barabasi_100nodes_network.node[9].content_store 	p_hit[9] 	0.065000920739012
scalar barabasi_100nodes_network.node[9].content_store 	hits[9] 	99894
scalar barabasi_100nodes_network.node[9].content_store 	misses[9] 	1436915
scalar barabasi_100nodes_network.node[9].content_store 	decision_yes[9] 	52785
scalar barabasi_100nodes_network.node[9].content_store 	decision_no[9] 	1384130
scalar barabasi_100nodes_network.node[9].content_store 	decision_ratio[9] 	0.036734949527286
scalar barabasi_100nodes_network.node[9].content_store 	"representation_breakdown[9] 25332:3747:1790:1372:5334:" 	0
scalar barabasi_100nodes_network.node[9].proactive_component 	hdistance[9].proactive_component 	3.5631274973977
scalar barabasi_100nodes_network.node[9].proactive_component 	downloads[9].proactive_component 	238248
scalar barabasi_100nodes_network.node[9].proactive_component 	avg_time[9].proactive_component 	0
scalar barabasi_100nodes_network.node[10].core_layer 	interests[10] 	273470
scalar barabasi_100nodes_network.node[10].core_layer 	data[10] 	143156
scalar barabasi_100nodes_network.node[10].core_layer 	slots_sent[face$o[1]->client[10]] 	141804034
scalar barabasi_100nodes_network.node[10].core_layer 	slots_sent[face$o[2]->node[0]] 	0
scalar barabasi_100nodes_network.node[10].core_layer 	slots_sent[face$o[3]->node[71]] 	24258783
scalar barabasi_100nodes_network.node[10].content_store 	p_hit[10] 	0.47652027644714
scalar barabasi_100nodes_network.node[10].content_store 	hits[10] 	130314
scalar barabasi_100nodes_network.node[10].content_store 	misses[10] 	143156
scalar barabasi_100nodes_network.node[10].content_store 	decision_yes[10] 	143156
scalar barabasi_100nodes_network.node[10].content_store 	decision_no[10] 	0
scalar barabasi_100nodes_network.node[10].content_store 	decision_ratio[10] 	1
scalar barabasi_100nodes_network.node[10].content_store 	"representation_breakdown[10] 24072:3510:1691:1475:5459:" 	0
scalar barabasi_100nodes_network.node[10].proactive_component 	hdistance[10].proactive_component 	2.5715754838092
scalar barabasi_100nodes_network.node[10].proactive_component 	downloads[10].proactive_component 	438551
scalar barabasi_100nodes_network.node[10].proactive_component 	avg_time[10].proactive_component 	0
scalar barabasi_100nodes_network.node[11].core_layer 	interests[11] 	193241
scalar barabasi_100nodes_network.node[11].core_layer 	data[11] 	73848
scalar barabasi_100nodes_network.node[11].core_layer 	slots_sent[face$o[1]->client[11]] 	143009652
scalar barabasi_100nodes_network.node[11].core_layer 	slots_sent[face$o[2]->node[0]] 	0
scalar barabasi_100nodes_network.node[11].content_store 	p_hit[11] 	0.61784507428548
scalar barabasi_100nodes_network.node[11].content_store 	hits[11] 	119393
scalar barabasi_100nodes_network.node[11].content_store 	misses[11] 	73848
scalar barabasi_100nodes_network.node[11].content_store 	decision_yes[11] 	73848
scalar barabasi_100nodes_network.node[11].content_store 	decision_no[11] 	0
scalar barabasi_100nodes_network.node[11].content_store 	decision_ratio[11] 	1
scalar barabasi_100nodes_network.node[11].content_store 	"representation_breakdown[11] 23119:3082:1685:1410:5675:" 	0
scalar barabasi_100nodes_network.node[11].proactive_component 	hdistance[11].proactive_component 	2.5872996261689
scalar barabasi_100nodes_network.node[11].proactive_component 	downloads[11].proactive_component 	283283
scalar barabasi_100nodes_network.node[11].proactive_component 	avg_time[11].proactive_component 	0
scalar barabasi_100nodes_network.node[12].core_layer 	interests[12] 	190407
scalar barabasi_100nodes_network.node[12].core_layer 	data[12] 	72537
scalar barabasi_100nodes_network.node[12].core_layer 	slots_sent[face$o[1]->client[12]] 	145283977
scalar barabasi_100nodes_network.node[12].core_layer 	slots_sent[face$o[2]->node[8]] 	0
scalar barabasi_100nodes_network.node[12].content_store 	p_hit[12] 	0.61904236713986
scalar barabasi_100nodes_network.node[12].content_store 	hits[12] 	117870
scalar barabasi_100nodes_network.node[12].content_store 	misses[12] 	72537
scalar barabasi_100nodes_network.node[12].content_store 	decision_yes[12] 	72537
scalar barabasi_100nodes_network.node[12].content_store 	decision_no[12] 	0
scalar barabasi_100nodes_network.node[12].content_store 	decision_ratio[12] 	1
scalar barabasi_100nodes_network.node[12].content_store 	"representation_breakdown[12] 22348:2934:1527:1357:5876:" 	0
scalar barabasi_100nodes_network.node[12].proactive_component 	hdistance[12].proactive_component 	3.2576194569405
scalar barabasi_100nodes_network.node[12].proactive_component 	downloads[12].proactive_component 	229183
scalar barabasi_100nodes_network.node[12].proactive_component 	avg_time[12].proactive_component 	0
scalar barabasi_100nodes_network.node[13].core_layer 	interests[13] 	479314
scalar barabasi_100nodes_network.node[13].core_layer 	data[13] 	325127
scalar barabasi_100nodes_network.node[13].core_layer 	slots_sent[face$o[1]->client[13]] 	138990600
scalar barabasi_100nodes_network.node[13].core_layer 	slots_sent[face$o[2]->node[2]] 	0
scalar barabasi_100nodes_network.node[13].core_layer 	slots_sent[face$o[3]->node[67]] 	24866349
scalar barabasi_100nodes_network.node[13].core_layer 	slots_sent[face$o[4]->node[78]] 	61745180
scalar barabasi_100nodes_network.node[13].content_store 	p_hit[13] 	0.32168265479414
scalar barabasi_100nodes_network.node[13].content_store 	hits[13] 	154187
scalar barabasi_100nodes_network.node[13].content_store 	misses[13] 	325127
scalar barabasi_100nodes_network.node[13].content_store 	decision_yes[13] 	325127
scalar barabasi_100nodes_network.node[13].content_store 	decision_no[13] 	0
scalar barabasi_100nodes_network.node[13].content_store 	decision_ratio[13] 	1
scalar barabasi_100nodes_network.node[13].content_store 	"representation_breakdown[13] 24566:4025:1930:1613:5113:" 	0
scalar barabasi_100nodes_network.node[13].proactive_component 	hdistance[13].proactive_component 	2.9491854331402
scalar barabasi_100nodes_network.node[13].proactive_component 	downloads[13].proactive_component 	771944
scalar barabasi_100nodes_network.node[13].proactive_component 	avg_time[13].proactive_component 	0
scalar barabasi_100nodes_network.node[14].core_layer 	interests[14] 	191272
scalar barabasi_100nodes_network.node[14].core_layer 	data[14] 	72654
scalar barabasi_100nodes_network.node[14].core_layer 	slots_sent[face$o[1]->client[14]] 	146096324
scalar barabasi_100nodes_network.node[14].core_layer 	slots_sent[face$o[2]->node[8]] 	0
scalar barabasi_100nodes_network.node[14].content_store 	p_hit[14] 	0.6201534986825
scalar barabasi_100nodes_network.node[14].content_store 	hits[14] 	118618
scalar barabasi_100nodes_network.node[14].content_store 	misses[14] 	72654
scalar barabasi_100nodes_network.node[14].content_store 	decision_yes[14] 	72654
scalar barabasi_100nodes_network.node[14].content_store 	decision_no[14] 	0
scalar barabasi_100nodes_network.node[14].content_store 	decision_ratio[14] 	1
scalar barabasi_100nodes_network.node[14].content_store 	"representation_breakdown[14] 21971:2995:1503:1316:5936:" 	0
scalar barabasi_100nodes_network.node[14].proactive_component 	hdistance[14].proactive_component 	3.2548098316886
scalar barabasi_100nodes_network.node[14].proactive_component 	downloads[14].proactive_component 	229218
scalar barabasi_100nodes_network.node[14].proactive_component 	avg_time[14].proactive_component 	0
scalar barabasi_100nodes_network.node[15].core_layer 	interests[15] 	1842822
scalar barabasi_100nodes_network.node[15].core_layer 	repo_load[15] 	1610373
scalar barabasi_100nodes_network.node[15].core_layer 	data[15] 	133705
scalar barabasi_100nodes_network.node[15].core_layer 	slots_sent[face$o[1]->client[15]] 	102152964
scalar barabasi_100nodes_network.node[15].core_layer 	slots_sent[face$o[2]->node[0]] 	392629544
scalar barabasi_100nodes_network.node[15].core_layer 	slots_sent[face$o[3]->node[40]] 	24047118
scalar barabasi_100nodes_network.node[15].core_layer 	slots_sent[face$o[4]->node[56]] 	16445277
scalar barabasi_100nodes_network.node[15].content_store 	p_hit[15] 	0.053583037319936
scalar barabasi_100nodes_network.node[15].content_store 	hits[15] 	98744
scalar barabasi_100nodes_network.node[15].content_store 	misses[15] 	1744078
scalar barabasi_100nodes_network.node[15].content_store 	decision_yes[15] 	133705
scalar barabasi_100nodes_network.node[15].content_store 	decision_no[15] 	1610373
scalar barabasi_100nodes_network.node[15].content_store 	decision_ratio[15] 	0.076662282306181
scalar barabasi_100nodes_network.node[15].content_store 	"representation_breakdown[15] 23518:3880:1891:1496:5332:" 	0
scalar barabasi_100nodes_network.node[15].proactive_component 	hdistance[15].proactive_component 	2.852570033618
scalar barabasi_100nodes_network.node[15].proactive_component 	downloads[15].proactive_component 	433399
scalar barabasi_100nodes_network.node[15].proactive_component 	avg_time[15].proactive_component 	0
scalar barabasi_100nodes_network.node[16].core_layer 	interests[16] 	636673
scalar barabasi_100nodes_network.node[16].core_layer 	data[16] 	475002
scalar barabasi_100nodes_network.node[16].core_layer 	slots_sent[face$o[1]->client[16]] 	137280567
scalar barabasi_100nodes_network.node[16].core_layer 	slots_sent[face$o[2]->node[2]] 	0
scalar barabasi_100nodes_network.node[16].core_layer 	slots_sent[face$o[3]->node[19]] 	108465751
scalar barabasi_100nodes_network.node[16].core_layer 	slots_sent[face$o[4]->node[20]] 	24976694
scalar barabasi_100nodes_network.node[16].content_store 	p_hit[16] 	0.2539309818384
scalar barabasi_100nodes_network.node[16].content_store 	hits[16] 	161671
scalar barabasi_100nodes_network.node[16].content_store 	misses[16] 	475002
scalar barabasi_100nodes_network.node[16].content_store 	decision_yes[16] 	475002
scalar barabasi_100nodes_network.node[16].content_store 	decision_no[16] 	0
scalar barabasi_100nodes_network.node[16].content_store 	decision_ratio[16] 	1
scalar barabasi_100nodes_network.node[16].content_store 	"representation_breakdown[16] 24967:4277:1949:1610:5022:" 	0
scalar barabasi_100nodes_network.node[16].proactive_component 	hdistance[16].proactive_component 	2.8871276907006
scalar barabasi_100nodes_network.node[16].proactive_component 	downloads[16].proactive_component 	898883
scalar barabasi_100nodes_network.node[16].proactive_component 	avg_time[16].proactive_component 	0
scalar barabasi_100nodes_network.node[17].core_layer 	interests[17] 	190433
scalar barabasi_100nodes_network.node[17].core_layer 	data[17] 	72398
scalar barabasi_100nodes_network.node[17].core_layer 	slots_sent[face$o[1]->client[17]] 	145467873
scalar barabasi_100nodes_network.node[17].core_layer 	slots_sent[face$o[2]->node[8]] 	0
scalar barabasi_100nodes_network.node[17].content_store 	p_hit[17] 	0.61982429515893
scalar barabasi_100nodes_network.node[17].content_store 	hits[17] 	118035
scalar barabasi_100nodes_network.node[17].content_store 	misses[17] 	72398
scalar barabasi_100nodes_network.node[17].content_store 	decision_yes[17] 	72398
scalar barabasi_100nodes_network.node[17].content_store 	decision_no[17] 	0
scalar barabasi_100nodes_network.node[17].content_store 	decision_ratio[17] 	1
scalar barabasi_100nodes_network.node[17].content_store 	"representation_breakdown[17] 22224:2926:1464:1256:5987:" 	0
scalar barabasi_100nodes_network.node[17].proactive_component 	hdistance[17].proactive_component 	3.2546344434535
scalar barabasi_100nodes_network.node[17].proactive_component 	downloads[17].proactive_component 	229855
scalar barabasi_100nodes_network.node[17].proactive_component 	avg_time[17].proactive_component 	0
scalar barabasi_100nodes_network.node[18].core_layer 	interests[18] 	439045
scalar barabasi_100nodes_network.node[18].core_layer 	repo_load[18] 	103742
scalar barabasi_100nodes_network.node[18].core_layer 	data[18] 	200927
scalar barabasi_100nodes_network.node[18].core_layer 	slots_sent[face$o[1]->client[18]] 	115036895
scalar barabasi_100nodes_network.node[18].core_layer 	slots_sent[face$o[2]->node[2]] 	0
scalar barabasi_100nodes_network.node[18].core_layer 	slots_sent[face$o[3]->node[53]] 	22968583
scalar barabasi_100nodes_network.node[18].core_layer 	slots_sent[face$o[4]->node[68]] 	22931125
scalar barabasi_100nodes_network.node[18].core_layer 	slots_sent[face$o[5]->node[72]] 	22809395
scalar barabasi_100nodes_network.node[18].content_store 	p_hit[18] 	0.3060642986482
scalar barabasi_100nodes_network.node[18].content_store 	hits[18] 	134376
scalar barabasi_100nodes_network.node[18].content_store 	misses[18] 	304669
scalar barabasi_100nodes_network.node[18].content_store 	decision_yes[18] 	200927
scalar barabasi_100nodes_network.node[18].content_store 	decision_no[18] 	103742
scalar barabasi_100nodes_network.node[18].content_store 	decision_ratio[18] 	0.65949276099636
scalar barabasi_100nodes_network.node[18].content_store 	"representation_breakdown[18] 26494:4441:1961:1561:4888:" 	0
scalar barabasi_100nodes_network.node[18].proactive_component 	hdistance[18].proactive_component 	3.303066900893
scalar barabasi_100nodes_network.node[18].proactive_component 	downloads[18].proactive_component 	737748
scalar barabasi_100nodes_network.node[18].proactive_component 	avg_time[18].proactive_component 	0
scalar barabasi_100nodes_network.node[19].core_layer 	interests[19] 	511498
scalar barabasi_100nodes_network.node[19].core_layer 	data[19] 	341712
scalar barabasi_100nodes_network.node[19].core_layer 	slots_sent[face$o[1]->client[19]] 	141397497
scalar barabasi_100nodes_network.node[19].core_layer 	slots_sent[face$o[2]->node[16]] 	0
scalar barabasi_100nodes_network.node[19].core_layer 	slots_sent[face$o[3]->node[63]] 	25149060
scalar barabasi_100nodes_network.node[19].core_layer 	slots_sent[face$o[4]->node[70]] 	24919312
scalar barabasi_100nodes_network.node[19].core_layer 	slots_sent[face$o[5]->node[80]] 	25025212
scalar barabasi_100nodes_network.node[19].core_layer 	slots_sent[face$o[6]->node[89]] 	24913103
scalar barabasi_100nodes_network.node[19].content_store 	p_hit[19] 	0.33193873680836
scalar barabasi_100nodes_network.node[19].content_store 	hits[19] 	169786
scalar barabasi_100nodes_network.node[19].content_store 	misses[19] 	341712
scalar barabasi_100nodes_network.node[19].content_store 	decision_yes[19] 	341712
scalar barabasi_100nodes_network.node[19].content_store 	decision_no[19] 	0
scalar barabasi_100nodes_network.node[19].content_store 	decision_ratio[19] 	1
scalar barabasi_100nodes_network.node[19].content_store 	"representation_breakdown[19] 24576:3953:1761:1552:5242:" 	0
scalar barabasi_100nodes_network.node[19].proactive_component 	hdistance[19].proactive_component 	3.4289717247366
scalar barabasi_100nodes_network.node[19].proactive_component 	downloads[19].proactive_component 	899691
scalar barabasi_100nodes_network.node[19].proactive_component 	avg_time[19].proactive_component 	0
scalar barabasi_100nodes_network.node[20].core_layer 	interests[20] 	190555
scalar barabasi_100nodes_network.node[20].core_layer 	data[20] 	72382
scalar barabasi_100nodes_network.node[20].core_layer 	slots_sent[face$o[1]->client[20]] 	145880289
scalar barabasi_100nodes_network.node[20].core_layer 	slots_sent[face$o[2]->node[16]] 	0
scalar barabasi_100nodes_network.node[20].content_store 	p_hit[20] 	0.62015166224974
scalar barabasi_100nodes_network.node[20].content_store 	hits[20] 	118173
scalar barabasi_100nodes_network.node[20].content_store 	misses[20] 	72382
scalar barabasi_100nodes_network.node[20].content_store 	decision_yes[20] 	72382
scalar barabasi_100nodes_network.node[20].content_store 	decision_no[20] 	0
scalar barabasi_100nodes_network.node[20].content_store 	decision_ratio[20] 	1
scalar barabasi_100nodes_network.node[20].content_store 	"representation_breakdown[20] 22129:2866:1526:1295:5953:" 	0
scalar barabasi_100nodes_network.node[20].proactive_component 	hdistance[20].proactive_component 	3.2445128223009
scalar barabasi_100nodes_network.node[20].proactive_component 	downloads[20].proactive_component 	229444
scalar barabasi_100nodes_network.node[20].proactive_component 	avg_time[20].proactive_component 	0
scalar barabasi_100nodes_network.node[21].core_layer 	interests[21] 	306430
scalar barabasi_100nodes_network.node[21].core_layer 	data[21] 	173856
scalar barabasi_100nodes_network.node[21].core_layer 	slots_sent[face$o[1]->client[21]] 	140364130
scalar barabasi_100nodes_network.node[21].core_layer 	slots_sent[face$o[2]->node[0]] 	0
scalar barabasi_100nodes_network.node[21].core_layer 	slots_sent[face$o[3]->node[24]] 	17335997
scalar barabasi_100nodes_network.node[21].core_layer 	slots_sent[face$o[4]->node[57]] 	16452238
scalar barabasi_100nodes_network.node[21].content_store 	p_hit[21] 	0.43264040727083
scalar barabasi_100nodes_network.node[21].content_store 	hits[21] 	132574
scalar barabasi_100nodes_network.node[21].content_store 	misses[21] 	173856
scalar barabasi_100nodes_network.node[21].content_store 	decision_yes[21] 	173856
scalar barabasi_100nodes_network.node[21].content_store 	decision_no[21] 	0
scalar barabasi_100nodes_network.node[21].content_store 	decision_ratio[21] 	1
scalar barabasi_100nodes_network.node[21].content_store 	"representation_breakdown[21] 23866:3602:1895:1570:5303:" 	0
scalar barabasi_100nodes_network.node[21].proactive_component 	hdistance[21].proactive_component 	2.6481392295533
scalar barabasi_100nodes_network.node[21].proactive_component 	downloads[21].proactive_component 	500411
scalar barabasi_100nodes_network.node[21].proactive_component 	avg_time[21].proactive_component 	0
scalar barabasi_100nodes_network.node[22].core_layer 	interests[22] 	189681
scalar barabasi_100nodes_network.node[22].core_layer 	repo_load[22] 	46455
scalar barabasi_100nodes_network.node[22].core_layer 	data[22] 	52095
scalar barabasi_100nodes_network.node[22].core_layer 	slots_sent[face$o[1]->client[22]] 	112548749
scalar barabasi_100nodes_network.node[22].core_layer 	slots_sent[face$o[2]->node[0]] 	0
scalar barabasi_100nodes_network.node[22].content_store 	p_hit[22] 	0.48044348142408
scalar barabasi_100nodes_network.node[22].content_store 	hits[22] 	91131
scalar barabasi_100nodes_network.node[22].content_store 	misses[22] 	98550
scalar barabasi_100nodes_network.node[22].content_store 	decision_yes[22] 	52095
scalar barabasi_100nodes_network.node[22].content_store 	decision_no[22] 	46455
scalar barabasi_100nodes_network.node[22].content_store 	decision_ratio[22] 	0.52861491628615
scalar barabasi_100nodes_network.node[22].content_store 	"representation_breakdown[22] 22908:3294:1728:1389:5647:" 	0
scalar barabasi_100nodes_network.node[22].proactive_component 	hdistance[22].proactive_component 	2.8378089140745
scalar barabasi_100nodes_network.node[22].proactive_component 	downloads[22].proactive_component 	212114
scalar barabasi_100nodes_network.node[22].proactive_component 	avg_time[22].proactive_component 	0
scalar barabasi_100nodes_network.node[23].core_layer 	interests[23] 	643715
scalar barabasi_100nodes_network.node[23].core_layer 	data[23] 	456361
scalar barabasi_100nodes_network.node[23].core_layer 	slots_sent[face$o[1]->client[23]] 	141404634
scalar barabasi_100nodes_network.node[23].core_layer 	slots_sent[face$o[2]->node[7]] 	0
scalar barabasi_100nodes_network.node[23].core_layer 	slots_sent[face$o[3]->node[46]] 	47153990
scalar barabasi_100nodes_network.node[23].core_layer 	slots_sent[face$o[4]->node[47]] 	16573100
scalar barabasi_100nodes_network.node[23].core_layer 	slots_sent[face$o[5]->node[51]] 	25101872
scalar barabasi_100nodes_network.node[23].core_layer 	slots_sent[face$o[6]->node[83]] 	25185747
scalar barabasi_100nodes_network.node[23].core_layer 	slots_sent[face$o[7]->node[86]] 	25083285
scalar barabasi_100nodes_network.node[23].content_store 	p_hit[23] 	0.29105116394678
scalar barabasi_100nodes_network.node[23].content_store 	hits[23] 	187354
scalar barabasi_100nodes_network.node[23].content_store 	misses[23] 	456361
scalar barabasi_100nodes_network.node[23].content_store 	decision_yes[23] 	456361
scalar barabasi_100nodes_network.node[23].content_store 	decision_no[23] 	0
scalar barabasi_100nodes_network.node[23].content_store 	decision_ratio[23] 	1
scalar barabasi_100nodes_network.node[23].content_store 	"representation_breakdown[23] 24668:4100:1858:1574:5148:" 	0
scalar barabasi_100nodes_network.node[23].proactive_component 	hdistance[23].proactive_component 	3.4092907615113
scalar barabasi_100nodes_network.node[23].proactive_component 	downloads[23].proactive_component 	1130607
scalar barabasi_100nodes_network.node[23].proactive_component 	avg_time[23].proactive_component 	0
scalar barabasi_100nodes_network.node[24].core_layer 	interests[24] 	188461
scalar barabasi_100nodes_network.node[24].core_layer 	repo_load[24] 	46708
scalar barabasi_100nodes_network.node[24].core_layer 	data[24] 	50849
scalar barabasi_100nodes_network.node[24].core_layer 	slots_sent[face$o[1]->client[24]] 	114656256
scalar barabasi_100nodes_network.node[24].core_layer 	slots_sent[face$o[2]->node[21]] 	0
scalar barabasi_100nodes_network.node[24].content_store 	p_hit[24] 	0.48234913324242
scalar barabasi_100nodes_network.node[24].content_store 	hits[24] 	90904
scalar barabasi_100nodes_network.node[24].content_store 	misses[24] 	97557
scalar barabasi_100nodes_network.node[24].content_store 	decision_yes[24] 	50849
scalar barabasi_100nodes_network.node[24].content_store 	decision_no[24] 	46708
scalar barabasi_100nodes_network.node[24].content_store 	decision_ratio[24] 	0.52122348985721
scalar barabasi_100nodes_network.node[24].content_store 	"representation_breakdown[24] 22004:3185:1614:1365:5812:" 	0
scalar barabasi_100nodes_network.node[24].proactive_component 	hdistance[24].proactive_component 	3.2082762614283
scalar barabasi_100nodes_network.node[24].proactive_component 	downloads[24].proactive_component 	179598
scalar barabasi_100nodes_network.node[24].proactive_component 	avg_time[24].proactive_component 	0
scalar barabasi_100nodes_network.node[25].core_layer 	interests[25] 	273501
scalar barabasi_100nodes_network.node[25].core_layer 	data[25] 	143498
scalar barabasi_100nodes_network.node[25].core_layer 	slots_sent[face$o[1]->client[25]] 	141344309
scalar barabasi_100nodes_network.node[25].core_layer 	slots_sent[face$o[2]->node[2]] 	0
scalar barabasi_100nodes_network.node[25].core_layer 	slots_sent[face$o[3]->node[38]] 	24354510
scalar barabasi_100nodes_network.node[25].content_store 	p_hit[25] 	0.47532915784586
scalar barabasi_100nodes_network.node[25].content_store 	hits[25] 	130003
scalar barabasi_100nodes_network.node[25].content_store 	misses[25] 	143498
scalar barabasi_100nodes_network.node[25].content_store 	decision_yes[25] 	143498
scalar barabasi_100nodes_network.node[25].content_store 	decision_no[25] 	0
scalar barabasi_100nodes_network.node[25].content_store 	decision_ratio[25] 	1
scalar barabasi_100nodes_network.node[25].content_store 	"representation_breakdown[25] 24427:3436:1694:1482:5437:" 	0
scalar barabasi_100nodes_network.node[25].proactive_component 	hdistance[25].proactive_component 	2.9616795704693
scalar barabasi_100nodes_network.node[25].proactive_component 	downloads[25].proactive_component 	439922
scalar barabasi_100nodes_network.node[25].proactive_component 	avg_time[25].proactive_component 	0
scalar barabasi_100nodes_network.node[26].core_layer 	interests[26] 	426733
scalar barabasi_100nodes_network.node[26].core_layer 	repo_load[26] 	116639
scalar barabasi_100nodes_network.node[26].core_layer 	data[26] 	199272
scalar barabasi_100nodes_network.node[26].core_layer 	slots_sent[face$o[1]->client[26]] 	102018541
scalar barabasi_100nodes_network.node[26].core_layer 	slots_sent[face$o[2]->node[2]] 	0
scalar barabasi_100nodes_network.node[26].core_layer 	slots_sent[face$o[3]->node[77]] 	45310222
scalar barabasi_100nodes_network.node[26].core_layer 	slots_sent[face$o[4]->node[91]] 	24408585
scalar barabasi_100nodes_network.node[26].content_store 	p_hit[26] 	0.25969868746968
scalar barabasi_100nodes_network.node[26].content_store 	hits[26] 	110822
scalar barabasi_100nodes_network.node[26].content_store 	misses[26] 	315911
scalar barabasi_100nodes_network.node[26].content_store 	decision_yes[26] 	199272
scalar barabasi_100nodes_network.node[26].content_store 	decision_no[26] 	116639
scalar barabasi_100nodes_network.node[26].content_store 	decision_ratio[26] 	0.63078525280854
scalar barabasi_100nodes_network.node[26].content_store 	"representation_breakdown[26] 23880:3945:1882:1560:5246:" 	0
scalar barabasi_100nodes_network.node[26].proactive_component 	hdistance[26].proactive_component 	3.0958872701383
scalar barabasi_100nodes_network.node[26].proactive_component 	downloads[26].proactive_component 	580077
scalar barabasi_100nodes_network.node[26].proactive_component 	avg_time[26].proactive_component 	0
scalar barabasi_100nodes_network.node[27].core_layer 	interests[27] 	267981
scalar barabasi_100nodes_network.node[27].core_layer 	repo_load[27] 	76229
scalar barabasi_100nodes_network.node[27].core_layer 	data[27] 	101047
scalar barabasi_100nodes_network.node[27].core_layer 	slots_sent[face$o[1]->client[27]] 	104452410
scalar barabasi_100nodes_network.node[27].core_layer 	slots_sent[face$o[2]->node[4]] 	0
scalar barabasi_100nodes_network.node[27].core_layer 	slots_sent[face$o[3]->node[99]] 	23985511
scalar barabasi_100nodes_network.node[27].content_store 	p_hit[27] 	0.33847548893392
scalar barabasi_100nodes_network.node[27].content_store 	hits[27] 	90705
scalar barabasi_100nodes_network.node[27].content_store 	misses[27] 	177276
scalar barabasi_100nodes_network.node[27].content_store 	decision_yes[27] 	101047
scalar barabasi_100nodes_network.node[27].content_store 	decision_no[27] 	76229
scalar barabasi_100nodes_network.node[27].content_store 	decision_ratio[27] 	0.56999819490512
scalar barabasi_100nodes_network.node[27].content_store 	"representation_breakdown[27] 22805:3413:1735:1310:5685:" 	0
scalar barabasi_100nodes_network.node[27].proactive_component 	hdistance[27].proactive_component 	3.4155377222556
scalar barabasi_100nodes_network.node[27].proactive_component 	downloads[27].proactive_component 	290094
scalar barabasi_100nodes_network.node[27].proactive_component 	avg_time[27].proactive_component 	0
scalar barabasi_100nodes_network.node[28].core_layer 	interests[28] 	1803147
scalar barabasi_100nodes_network.node[28].core_layer 	repo_load[28] 	1659546
scalar barabasi_100nodes_network.node[28].core_layer 	data[28] 	51948
scalar barabasi_100nodes_network.node[28].core_layer 	slots_sent[face$o[1]->client[28]] 	113344951
scalar barabasi_100nodes_network.node[28].core_layer 	slots_sent[face$o[2]->node[0]] 	424502236
scalar barabasi_100nodes_network.node[28].content_store 	p_hit[28] 	0.050829466482766
scalar barabasi_100nodes_network.node[28].content_store 	hits[28] 	91653
scalar barabasi_100nodes_network.node[28].content_store 	misses[28] 	1711494
scalar barabasi_100nodes_network.node[28].content_store 	decision_yes[28] 	51948
scalar barabasi_100nodes_network.node[28].content_store 	decision_no[28] 	1659546
scalar barabasi_100nodes_network.node[28].content_store 	decision_ratio[28] 	0.030352428930513
scalar barabasi_100nodes_network.node[28].content_store 	"representation_breakdown[28] 23109:3517:1711:1366:5609:" 	0
scalar barabasi_100nodes_network.node[28].proactive_component 	hdistance[28].proactive_component 	2.8320459216214
scalar barabasi_100nodes_network.node[28].proactive_component 	downloads[28].proactive_component 	211665
scalar barabasi_100nodes_network.node[28].proactive_component 	avg_time[28].proactive_component 	0
scalar barabasi_100nodes_network.node[29].core_layer 	interests[29] 	193888
scalar barabasi_100nodes_network.node[29].core_layer 	data[29] 	74321
scalar barabasi_100nodes_network.node[29].core_layer 	slots_sent[face$o[1]->client[29]] 	142811944
scalar barabasi_100nodes_network.node[29].core_layer 	slots_sent[face$o[2]->node[2]] 	0
scalar barabasi_100nodes_network.node[29].content_store 	p_hit[29] 	0.6166807641525
scalar barabasi_100nodes_network.node[29].content_store 	hits[29] 	119567
scalar barabasi_100nodes_network.node[29].content_store 	misses[29] 	74321
scalar barabasi_100nodes_network.node[29].content_store 	decision_yes[29] 	74321
scalar barabasi_100nodes_network.node[29].content_store 	decision_no[29] 	0
scalar barabasi_100nodes_network.node[29].content_store 	decision_ratio[29] 	1
scalar barabasi_100nodes_network.node[29].content_store 	"representation_breakdown[29] 23281:3117:1643:1395:5683:" 	0
scalar barabasi_100nodes_network.node[29].proactive_component 	hdistance[29].proactive_component 	2.9745919380356
scalar barabasi_100nodes_network.node[29].proactive_component 	downloads[29].proactive_component 	285067
scalar barabasi_100nodes_network.node[29].proactive_component 	avg_time[29].proactive_component 	0
scalar barabasi_100nodes_network.node[30].core_layer 	interests[30] 	269605
scalar barabasi_100nodes_network.node[30].core_layer 	data[30] 	141017
scalar barabasi_100nodes_network.node[30].core_layer 	slots_sent[face$o[1]->client[30]] 	144450036
scalar barabasi_100nodes_network.node[30].core_layer 	slots_sent[face$o[2]->node[4]] 	0
scalar barabasi_100nodes_network.node[30].core_layer 	slots_sent[face$o[3]->node[88]] 	24793602
scalar barabasi_100nodes_network.node[30].content_store 	p_hit[30] 	0.47694961146863
scalar barabasi_100nodes_network.node[30].content_store 	hits[30] 	128588
scalar barabasi_100nodes_network.node[30].content_store 	misses[30] 	141017
scalar barabasi_100nodes_network.node[30].content_store 	decision_yes[30] 	141017
scalar barabasi_100nodes_network.node[30].content_store 	decision_no[30] 	0
scalar barabasi_100nodes_network.node[30].content_store 	decision_ratio[30] 	1
scalar barabasi_100nodes_network.node[30].content_store 	"representation_breakdown[30] 22897:3218:1687:1420:5659:" 	0
scalar barabasi_100nodes_network.node[30].proactive_component 	hdistance[30].proactive_component 	3.2155386377417
scalar barabasi_100nodes_network.node[30].proactive_component 	downloads[30].proactive_component 	371075
scalar barabasi_100nodes_network.node[30].proactive_component 	avg_time[30].proactive_component 	0
scalar barabasi_100nodes_network.node[31].core_layer 	interests[31] 	409310
scalar barabasi_100nodes_network.node[31].core_layer 	data[31] 	274674
scalar barabasi_100nodes_network.node[31].core_layer 	slots_sent[face$o[1]->client[31]] 	142763346
scalar barabasi_100nodes_network.node[31].core_layer 	slots_sent[face$o[2]->node[7]] 	0
scalar barabasi_100nodes_network.node[31].core_layer 	slots_sent[face$o[3]->node[65]] 	67535524
scalar barabasi_100nodes_network.node[31].content_store 	p_hit[31] 	0.32893405975911
scalar barabasi_100nodes_network.node[31].content_store 	hits[31] 	134636
scalar barabasi_100nodes_network.node[31].content_store 	misses[31] 	274674
scalar barabasi_100nodes_network.node[31].content_store 	decision_yes[31] 	274674
scalar barabasi_100nodes_network.node[31].content_store 	decision_no[31] 	0
scalar barabasi_100nodes_network.node[31].content_store 	decision_ratio[31] 	1
scalar barabasi_100nodes_network.node[31].content_store 	"representation_breakdown[31] 23892:3620:1724:1498:5422:" 	0
scalar barabasi_100nodes_network.node[31].proactive_component 	hdistance[31].proactive_component 	3.1655567161061
scalar barabasi_100nodes_network.node[31].proactive_component 	downloads[31].proactive_component 	478700
scalar barabasi_100nodes_network.node[31].proactive_component 	avg_time[31].proactive_component 	0
scalar barabasi_100nodes_network.node[32].core_layer 	interests[32] 	1951793
scalar barabasi_100nodes_network.node[32].core_layer 	repo_load[32] 	77767
scalar barabasi_100nodes_network.node[32].core_layer 	data[32] 	1361978
scalar barabasi_100nodes_network.node[32].core_layer 	slots_sent[face$o[1]->client[32]] 	104923724
scalar barabasi_100nodes_network.node[32].core_layer 	slots_sent[face$o[2]->node[2]] 	423657528
scalar barabasi_100nodes_network.node[32].core_layer 	slots_sent[face$o[3]->node[43]] 	22282709
scalar barabasi_100nodes_network.node[32].core_layer 	slots_sent[face$o[4]->node[64]] 	14933748
scalar barabasi_100nodes_network.node[32].content_store 	p_hit[32] 	0.26234749279252
scalar barabasi_100nodes_network.node[32].content_store 	hits[32] 	512048
scalar barabasi_100nodes_network.node[32].content_store 	misses[32] 	1439745
scalar barabasi_100nodes_network.node[32].content_store 	decision_yes[32] 	1361978
scalar barabasi_100nodes_network.node[32].content_store 	decision_no[32] 	77767
scalar barabasi_100nodes_network.node[32].content_store 	decision_ratio[32] 	0.94598557383426
scalar barabasi_100nodes_network.node[32].content_store 	"representation_breakdown[32] 26269:6312:2798:1845:3973:" 	0
scalar barabasi_100nodes_network.node[32].proactive_component 	hdistance[32].proactive_component 	2.009269944998
scalar barabasi_100nodes_network.node[32].proactive_component 	downloads[32].proactive_component 	6619241
scalar barabasi_100nodes_network.node[32].proactive_component 	avg_time[32].proactive_component 	0
scalar barabasi_100nodes_network.node[33].core_layer 	interests[33] 	193076
scalar barabasi_100nodes_network.node[33].core_layer 	data[33] 	74241
scalar barabasi_100nodes_network.node[33].core_layer 	slots_sent[face$o[1]->client[33]] 	141830131
scalar barabasi_100nodes_network.node[33].core_layer 	slots_sent[face$o[2]->node[2]] 	0
scalar barabasi_100nodes_network.node[33].content_store 	p_hit[33] 	0.61548302222959
scalar barabasi_100nodes_network.node[33].content_store 	hits[33] 	118835
scalar barabasi_100nodes_network.node[33].content_store 	misses[33] 	74241
scalar barabasi_100nodes_network.node[33].content_store 	decision_yes[33] 	74241
[...]
scalar barabasi_100nodes_network.client[8] 	avg_time[8].real 	0
scalar barabasi_100nodes_network.client[9] 	hdistance[9].real 	1.1193581077319
scalar barabasi_100nodes_network.client[9] 	downloads[9].real 	179594
scalar barabasi_100nodes_network.client[9] 	avg_time[9].real 	0
scalar barabasi_100nodes_network.client[10] 	hdistance[10].real 	1.0119225780704
scalar barabasi_100nodes_network.client[10] 	downloads[10].real 	180414
scalar barabasi_100nodes_network.client[10] 	avg_time[10].real 	0
scalar barabasi_100nodes_network.client[11] 	hdistance[11].real 	0.99357631460499
scalar barabasi_100nodes_network.client[11] 	downloads[11].real 	179959
scalar barabasi_100nodes_network.client[11] 	avg_time[11].real 	0
scalar barabasi_100nodes_network.client[12] 	hdistance[12].real 	1.338477561068
scalar barabasi_100nodes_network.client[12] 	downloads[12].real 	179554
scalar barabasi_100nodes_network.client[12] 	avg_time[12].real 	0
scalar barabasi_100nodes_network.client[13] 	hdistance[13].real 	1.1780734616067
scalar barabasi_100nodes_network.client[13] 	downloads[13].real 	180448
scalar barabasi_100nodes_network.client[13] 	avg_time[13].real 	0
scalar barabasi_100nodes_network.client[14] 	hdistance[14].real 	1.3329801809398
scalar barabasi_100nodes_network.client[14] 	downloads[14].real 	180281
scalar barabasi_100nodes_network.client[14] 	avg_time[14].real 	0
scalar barabasi_100nodes_network.client[15] 	hdistance[15].real 	1.0736397305837
scalar barabasi_100nodes_network.client[15] 	downloads[15].real 	180093
scalar barabasi_100nodes_network.client[15] 	avg_time[15].real 	0
scalar barabasi_100nodes_network.client[16] 	hdistance[16].real 	1.2011120378093
scalar barabasi_100nodes_network.client[16] 	downloads[16].real 	179850
scalar barabasi_100nodes_network.client[16] 	avg_time[16].real 	0
scalar barabasi_100nodes_network.client[17] 	hdistance[17].real 	1.3343172856284
scalar barabasi_100nodes_network.client[17] 	downloads[17].real 	179548
scalar barabasi_100nodes_network.client[17] 	avg_time[17].real 	0
scalar barabasi_100nodes_network.client[18] 	hdistance[18].real 	1.0711770609796
scalar barabasi_100nodes_network.client[18] 	downloads[18].real 	180339
scalar barabasi_100nodes_network.client[18] 	avg_time[18].real 	0
scalar barabasi_100nodes_network.client[19] 	hdistance[19].real 	1.4535577403766
scalar barabasi_100nodes_network.client[19] 	downloads[19].real 	180030
scalar barabasi_100nodes_network.client[19] 	avg_time[19].real 	0
scalar barabasi_100nodes_network.client[20] 	hdistance[20].real 	1.3354470160918
scalar barabasi_100nodes_network.client[20] 	downloads[20].real 	179781
scalar barabasi_100nodes_network.client[20] 	avg_time[20].real 	0
scalar barabasi_100nodes_network.client[21] 	hdistance[21].real 	1.0386216376506
scalar barabasi_100nodes_network.client[21] 	downloads[21].real 	180417
scalar barabasi_100nodes_network.client[21] 	avg_time[21].real 	0
scalar barabasi_100nodes_network.client[22] 	hdistance[22].real 	0.998350221271
scalar barabasi_100nodes_network.client[22] 	downloads[22].real 	179418
scalar barabasi_100nodes_network.client[22] 	avg_time[22].real 	0
scalar barabasi_100nodes_network.client[23] 	hdistance[23].real 	1.4552275999557
scalar barabasi_100nodes_network.client[23] 	downloads[23].real 	180580
scalar barabasi_100nodes_network.client[23] 	avg_time[23].real 	0
scalar barabasi_100nodes_network.client[24] 	hdistance[24].real 	1.160595105673
scalar barabasi_100nodes_network.client[24] 	downloads[24].real 	179800
scalar barabasi_100nodes_network.client[24] 	avg_time[24].real 	0
scalar barabasi_100nodes_network.client[25] 	hdistance[25].real 	1.1412167114586
scalar barabasi_100nodes_network.client[25] 	downloads[25].real 	180092
scalar barabasi_100nodes_network.client[25] 	avg_time[25].real 	0
scalar barabasi_100nodes_network.client[26] 	hdistance[26].real 	1.1350141545757
scalar barabasi_100nodes_network.client[26] 	downloads[26].real 	180507
scalar barabasi_100nodes_network.client[26] 	avg_time[26].real 	0
scalar barabasi_100nodes_network.client[27] 	hdistance[27].real 	1.28405361811
scalar barabasi_100nodes_network.client[27] 	downloads[27].real 	179790
scalar barabasi_100nodes_network.client[27] 	avg_time[27].real 	0
scalar barabasi_100nodes_network.client[28] 	hdistance[28].real 	0.99589381630932
scalar barabasi_100nodes_network.client[28] 	downloads[28].real 	180216
scalar barabasi_100nodes_network.client[28] 	avg_time[28].real 	0
scalar barabasi_100nodes_network.client[29] 	hdistance[29].real 	1.1176251824797
scalar barabasi_100nodes_network.client[29] 	downloads[29].real 	180157
scalar barabasi_100nodes_network.client[29] 	avg_time[29].real 	0
scalar barabasi_100nodes_network.client[30] 	hdistance[30].real 	1.3734664067403
scalar barabasi_100nodes_network.client[30] 	downloads[30].real 	180051
scalar barabasi_100nodes_network.client[30] 	avg_time[30].real 	0
scalar barabasi_100nodes_network.client[31] 	hdistance[31].real 	1.4147804185252
scalar barabasi_100nodes_network.client[31] 	downloads[31].real 	180252
scalar barabasi_100nodes_network.client[31] 	avg_time[31].real 	0
scalar barabasi_100nodes_network.client[32] 	hdistance[32].real 	1.0705065045674
scalar barabasi_100nodes_network.client[32] 	downloads[32].real 	179643
scalar barabasi_100nodes_network.client[32] 	avg_time[32].real 	0
scalar barabasi_100nodes_network.client[33] 	hdistance[33].real 	1.1271272889434
scalar barabasi_100nodes_network.client[33] 	downloads[33].real 	179395
scalar barabasi_100nodes_network.client[33] 	avg_time[33].real 	0
scalar barabasi_100nodes_network.client[34] 	hdistance[34].real 	1.123715294183
scalar barabasi_100nodes_network.client[34] 	downloads[34].real 	179905
scalar barabasi_100nodes_network.client[34] 	avg_time[34].real 	0
scalar barabasi_100nodes_network.client[35] 	hdistance[35].real 	1.1948270089286
scalar barabasi_100nodes_network.client[35] 	downloads[35].real 	179200
scalar barabasi_100nodes_network.client[35] 	avg_time[35].real 	0
scalar barabasi_100nodes_network.client[36] 	hdistance[36].real 	1.1392743390427
scalar barabasi_100nodes_network.client[36] 	downloads[36].real 	179588
scalar barabasi_100nodes_network.client[36] 	avg_time[36].real 	0
scalar barabasi_100nodes_network.client[37] 	hdistance[37].real 	0.99743007643164
scalar barabasi_100nodes_network.client[37] 	downloads[37].real 	180161
scalar barabasi_100nodes_network.client[37] 	avg_time[37].real 	0
scalar barabasi_100nodes_network.client[38] 	hdistance[38].real 	1.3641627144187
scalar barabasi_100nodes_network.client[38] 	downloads[38].real 	180488
scalar barabasi_100nodes_network.client[38] 	avg_time[38].real 	0
scalar barabasi_100nodes_network.client[39] 	hdistance[39].real 	1.37280989621
scalar barabasi_100nodes_network.client[39] 	downloads[39].real 	179786
scalar barabasi_100nodes_network.client[39] 	avg_time[39].real 	0
scalar barabasi_100nodes_network.client[40] 	hdistance[40].real 	1.0882888787674
scalar barabasi_100nodes_network.client[40] 	downloads[40].real 	180034
scalar barabasi_100nodes_network.client[40] 	avg_time[40].real 	0
scalar barabasi_100nodes_network.client[41] 	hdistance[41].real 	1.0827946240142
scalar barabasi_100nodes_network.client[41] 	downloads[41].real 	180060
scalar barabasi_100nodes_network.client[41] 	avg_time[41].real 	0
scalar barabasi_100nodes_network.client[42] 	hdistance[42].real 	1.1368554494201
scalar barabasi_100nodes_network.client[42] 	downloads[42].real 	179854
scalar barabasi_100nodes_network.client[42] 	avg_time[42].real 	0
scalar barabasi_100nodes_network.client[43] 	hdistance[43].real 	1.0184251336003
scalar barabasi_100nodes_network.client[43] 	downloads[43].real 	179266
scalar barabasi_100nodes_network.client[43] 	avg_time[43].real 	0
scalar barabasi_100nodes_network.client[44] 	hdistance[44].real 	0.99439914020431
scalar barabasi_100nodes_network.client[44] 	downloads[44].real 	180508
scalar barabasi_100nodes_network.client[44] 	avg_time[44].real 	0
scalar barabasi_100nodes_network.client[45] 	hdistance[45].real 	1.1266755994907
scalar barabasi_100nodes_network.client[45] 	downloads[45].real 	179861
scalar barabasi_100nodes_network.client[45] 	avg_time[45].real 	0
scalar barabasi_100nodes_network.client[46] 	hdistance[46].real 	1.6156801223987
scalar barabasi_100nodes_network.client[46] 	downloads[46].real 	180394
scalar barabasi_100nodes_network.client[46] 	avg_time[46].real 	0
scalar barabasi_100nodes_network.client[47] 	hdistance[47].real 	1.350851430503
scalar barabasi_100nodes_network.client[47] 	downloads[47].real 	180461
scalar barabasi_100nodes_network.client[47] 	avg_time[47].real 	0
scalar barabasi_100nodes_network.client[48] 	hdistance[48].real 	1.1342854127436
scalar barabasi_100nodes_network.client[48] 	downloads[48].real 	180027
scalar barabasi_100nodes_network.client[48] 	avg_time[48].real 	0
scalar barabasi_100nodes_network.client[49] 	hdistance[49].real 	1.3438638386318
scalar barabasi_100nodes_network.client[49] 	downloads[49].real 	180903
scalar barabasi_100nodes_network.client[49] 	avg_time[49].real 	0
scalar barabasi_100nodes_network.client[50] 	hdistance[50].real 	1.3965918754134
scalar barabasi_100nodes_network.client[50] 	downloads[50].real 	179923
scalar barabasi_100nodes_network.client[50] 	avg_time[50].real 	0
scalar barabasi_100nodes_network.client[51] 	hdistance[51].real 	1.5821544187705
scalar barabasi_100nodes_network.client[51] 	downloads[51].real 	179473
scalar barabasi_100nodes_network.client[51] 	avg_time[51].real 	0
scalar barabasi_100nodes_network.client[52] 	hdistance[52].real 	1.3559949591266
scalar barabasi_100nodes_network.client[52] 	downloads[52].real 	179334
scalar barabasi_100nodes_network.client[52] 	avg_time[52].real 	0
scalar barabasi_100nodes_network.client[53] 	hdistance[53].real 	1.1444007258884
scalar barabasi_100nodes_network.client[53] 	downloads[53].real 	180193
scalar barabasi_100nodes_network.client[53] 	avg_time[53].real 	0
scalar barabasi_100nodes_network.client[54] 	hdistance[54].real 	1.1669458434096
scalar barabasi_100nodes_network.client[54] 	downloads[54].real 	180292
scalar barabasi_100nodes_network.client[54] 	avg_time[54].real 	0
scalar barabasi_100nodes_network.client[55] 	hdistance[55].real 	1.1441064765458
scalar barabasi_100nodes_network.client[55] 	downloads[55].real 	180096
scalar barabasi_100nodes_network.client[55] 	avg_time[55].real 	0
scalar barabasi_100nodes_network.client[56] 	hdistance[56].real 	0.94338197729948
scalar barabasi_100nodes_network.client[56] 	downloads[56].real 	180084
scalar barabasi_100nodes_network.client[56] 	avg_time[56].real 	0
scalar barabasi_100nodes_network.client[57] 	hdistance[57].real 	1.070526626264
scalar barabasi_100nodes_network.client[57] 	downloads[57].real 	179691
scalar barabasi_100nodes_network.client[57] 	avg_time[57].real 	0
scalar barabasi_100nodes_network.client[58] 	hdistance[58].real 	1.0161369247536
scalar barabasi_100nodes_network.client[58] 	downloads[58].real 	179836
scalar barabasi_100nodes_network.client[58] 	avg_time[58].real 	0
scalar barabasi_100nodes_network.client[59] 	hdistance[59].real 	1.1185822184815
scalar barabasi_100nodes_network.client[59] 	downloads[59].real 	180592
scalar barabasi_100nodes_network.client[59] 	avg_time[59].real 	0
scalar barabasi_100nodes_network.client[60] 	hdistance[60].real 	1.5674485905891
scalar barabasi_100nodes_network.client[60] 	downloads[60].real 	179685
scalar barabasi_100nodes_network.client[60] 	avg_time[60].real 	0
scalar barabasi_100nodes_network.client[61] 	hdistance[61].real 	1.3416514291749
scalar barabasi_100nodes_network.client[61] 	downloads[61].real 	179929
scalar barabasi_100nodes_network.client[61] 	avg_time[61].real 	0
scalar barabasi_100nodes_network.client[62] 	hdistance[62].real 	1.166643506295
scalar barabasi_100nodes_network.client[62] 	downloads[62].real 	179905
scalar barabasi_100nodes_network.client[62] 	avg_time[62].real 	0
scalar barabasi_100nodes_network.client[63] 	hdistance[63].real 	1.5784266609218
scalar barabasi_100nodes_network.client[63] 	downloads[63].real 	181029
scalar barabasi_100nodes_network.client[63] 	avg_time[63].real 	0
scalar barabasi_100nodes_network.client[64] 	hdistance[64].real 	0.99449496436448
scalar barabasi_100nodes_network.client[64] 	downloads[64].real 	180017
scalar barabasi_100nodes_network.client[64] 	avg_time[64].real 	0
scalar barabasi_100nodes_network.client[65] 	hdistance[65].real 	1.6667611095371
scalar barabasi_100nodes_network.client[65] 	downloads[65].real 	180003
scalar barabasi_100nodes_network.client[65] 	avg_time[65].real 	0
scalar barabasi_100nodes_network.client[66] 	hdistance[66].real 	1.3382747156994
scalar barabasi_100nodes_network.client[66] 	downloads[66].real 	180179
scalar barabasi_100nodes_network.client[66] 	avg_time[66].real 	0
scalar barabasi_100nodes_network.client[67] 	hdistance[67].real 	1.3502324933872
scalar barabasi_100nodes_network.client[67] 	downloads[67].real 	179575
scalar barabasi_100nodes_network.client[67] 	avg_time[67].real 	0
scalar barabasi_100nodes_network.client[68] 	hdistance[68].real 	1.1490185435452
scalar barabasi_100nodes_network.client[68] 	downloads[68].real 	180548
scalar barabasi_100nodes_network.client[68] 	avg_time[68].real 	0
scalar barabasi_100nodes_network.client[69] 	hdistance[69].real 	1.1372324265373
scalar barabasi_100nodes_network.client[69] 	downloads[69].real 	179717
scalar barabasi_100nodes_network.client[69] 	avg_time[69].real 	0
scalar barabasi_100nodes_network.client[70] 	hdistance[70].real 	1.5917654259166
scalar barabasi_100nodes_network.client[70] 	downloads[70].real 	179730
scalar barabasi_100nodes_network.client[70] 	avg_time[70].real 	0
scalar barabasi_100nodes_network.client[71] 	hdistance[71].real 	1.2476298169584
scalar barabasi_100nodes_network.client[71] 	downloads[71].real 	179522
scalar barabasi_100nodes_network.client[71] 	avg_time[71].real 	0
scalar barabasi_100nodes_network.client[72] 	hdistance[72].real 	1.1411259880984
scalar barabasi_100nodes_network.client[72] 	downloads[72].real 	180144
scalar barabasi_100nodes_network.client[72] 	avg_time[72].real 	0
scalar barabasi_100nodes_network.client[73] 	hdistance[73].real 	1.0175223897202
scalar barabasi_100nodes_network.client[73] 	downloads[73].real 	179770
scalar barabasi_100nodes_network.client[73] 	avg_time[73].real 	0
scalar barabasi_100nodes_network.client[74] 	hdistance[74].real 	0.99623297915951
scalar barabasi_100nodes_network.client[74] 	downloads[74].real 	180514
scalar barabasi_100nodes_network.client[74] 	avg_time[74].real 	0
scalar barabasi_100nodes_network.client[75] 	hdistance[75].real 	1.3608387179216
scalar barabasi_100nodes_network.client[75] 	downloads[75].real 	179989
scalar barabasi_100nodes_network.client[75] 	avg_time[75].real 	0
scalar barabasi_100nodes_network.client[76] 	hdistance[76].real 	1.2384168971139
scalar barabasi_100nodes_network.client[76] 	downloads[76].real 	179723
scalar barabasi_100nodes_network.client[76] 	avg_time[76].real 	0
scalar barabasi_100nodes_network.client[77] 	hdistance[77].real 	1.1864596307675
scalar barabasi_100nodes_network.client[77] 	downloads[77].real 	180645
scalar barabasi_100nodes_network.client[77] 	avg_time[77].real 	0
scalar barabasi_100nodes_network.client[78] 	hdistance[78].real 	1.4177600230491
scalar barabasi_100nodes_network.client[78] 	downloads[78].real 	180484
scalar barabasi_100nodes_network.client[78] 	avg_time[78].real 	0
scalar barabasi_100nodes_network.client[79] 	hdistance[79].real 	1.1214749940336
scalar barabasi_100nodes_network.client[79] 	downloads[79].real 	180177
scalar barabasi_100nodes_network.client[79] 	avg_time[79].real 	0
scalar barabasi_100nodes_network.client[80] 	hdistance[80].real 	1.5831604704835
scalar barabasi_100nodes_network.client[80] 	downloads[80].real 	179815
scalar barabasi_100nodes_network.client[80] 	avg_time[80].real 	0
scalar barabasi_100nodes_network.client[81] 	hdistance[81].real 	1.4370339892467
scalar barabasi_100nodes_network.client[81] 	downloads[81].real 	179851
scalar barabasi_100nodes_network.client[81] 	avg_time[81].real 	0
scalar barabasi_100nodes_network.client[82] 	hdistance[82].real 	1.8163664362315
scalar barabasi_100nodes_network.client[82] 	downloads[82].real 	180528
scalar barabasi_100nodes_network.client[82] 	avg_time[82].real 	0
scalar barabasi_100nodes_network.client[83] 	hdistance[83].real 	1.5687512527561
scalar barabasi_100nodes_network.client[83] 	downloads[83].real 	179604
scalar barabasi_100nodes_network.client[83] 	avg_time[83].real 	0
scalar barabasi_100nodes_network.client[84] 	hdistance[84].real 	1.4081491674234
scalar barabasi_100nodes_network.client[84] 	downloads[84].real 	179503
scalar barabasi_100nodes_network.client[84] 	avg_time[84].real 	0
scalar barabasi_100nodes_network.client[85] 	hdistance[85].real 	1.3442861587696
scalar barabasi_100nodes_network.client[85] 	downloads[85].real 	179984
scalar barabasi_100nodes_network.client[85] 	avg_time[85].real 	0
scalar barabasi_100nodes_network.client[86] 	hdistance[86].real 	1.5772827145043
scalar barabasi_100nodes_network.client[86] 	downloads[86].real 	179775
scalar barabasi_100nodes_network.client[86] 	avg_time[86].real 	0
scalar barabasi_100nodes_network.client[87] 	hdistance[87].real 	1.5906805490667
scalar barabasi_100nodes_network.client[87] 	downloads[87].real 	179796
scalar barabasi_100nodes_network.client[87] 	avg_time[87].real 	0
scalar barabasi_100nodes_network.client[88] 	hdistance[88].real 	1.5920437250742
scalar barabasi_100nodes_network.client[88] 	downloads[88].real 	180034
scalar barabasi_100nodes_network.client[88] 	avg_time[88].real 	0
scalar barabasi_100nodes_network.client[89] 	hdistance[89].real 	1.595115174081
scalar barabasi_100nodes_network.client[89] 	downloads[89].real 	179945
scalar barabasi_100nodes_network.client[89] 	avg_time[89].real 	0
scalar barabasi_100nodes_network.client[90] 	hdistance[90].real 	1.2200995290739
scalar barabasi_100nodes_network.client[90] 	downloads[90].real 	179646
scalar barabasi_100nodes_network.client[90] 	avg_time[90].real 	0
scalar barabasi_100nodes_network.client[91] 	hdistance[91].real 	1.1355559870191
scalar barabasi_100nodes_network.client[91] 	downloads[91].real 	180265
scalar barabasi_100nodes_network.client[91] 	avg_time[91].real 	0
scalar barabasi_100nodes_network.client[92] 	hdistance[92].real 	1.6172035812903
scalar barabasi_100nodes_network.client[92] 	downloads[92].real 	179265
scalar barabasi_100nodes_network.client[92] 	avg_time[92].real 	0
scalar barabasi_100nodes_network.client[93] 	hdistance[93].real 	0.99736029732551
scalar barabasi_100nodes_network.client[93] 	downloads[93].real 	181081
scalar barabasi_100nodes_network.client[93] 	avg_time[93].real 	0
scalar barabasi_100nodes_network.client[94] 	hdistance[94].real 	1.2457325194228
scalar barabasi_100nodes_network.client[94] 	downloads[94].real 	180200
scalar barabasi_100nodes_network.client[94] 	avg_time[94].real 	0
scalar barabasi_100nodes_network.client[95] 	hdistance[95].real 	1.8179817965086
scalar barabasi_100nodes_network.client[95] 	downloads[95].real 	179526
scalar barabasi_100nodes_network.client[95] 	avg_time[95].real 	0
scalar barabasi_100nodes_network.client[96] 	hdistance[96].real 	1.3994831754147
scalar barabasi_100nodes_network.client[96] 	downloads[96].real 	179945
scalar barabasi_100nodes_network.client[96] 	avg_time[96].real 	0
scalar barabasi_100nodes_network.client[97] 	hdistance[97].real 	1.3844076911538
scalar barabasi_100nodes_network.client[97] 	downloads[97].real 	179999
scalar barabasi_100nodes_network.client[97] 	avg_time[97].real 	0
scalar barabasi_100nodes_network.client[98] 	hdistance[98].real 	1.8173822756978
scalar barabasi_100nodes_network.client[98] 	downloads[98].real 	180103
scalar barabasi_100nodes_network.client[98] 	avg_time[98].real 	0
scalar barabasi_100nodes_network.client[99] 	hdistance[99].real 	1.3252804525023
scalar barabasi_100nodes_network.client[99] 	downloads[99].real 	179977
scalar barabasi_100nodes_network.client[99] 	avg_time[99].real 	0
