version 2
run General-131-20150405-14:52:16-14731
attr D costaware0.01
attr F nrr
attr R lru
attr a 0.9
attr configname General
attr csize 1e3
attr ctlg 1e5
attr datetime 20150405-14:52:16
attr experiment General
attr inifile omnetpp.ini
attr iterationvars "$rep=9, $net=cost_scenario, $lambda=100, $a=0.9, $ctlg=1e5, $F=nrr, $ttl=10, $D=costaware0.01, $R=lru, $csize=1e3, $window=60, $variance=0.05, $mytime=1800000, $kappa=1, $priceratiovalue=100, $splits=0.25_0.25_0.5, $pricebits=0"
attr iterationvars2 "$rep=9, $net=cost_scenario, $lambda=100, $a=0.9, $ctlg=1e5, $F=nrr, $ttl=10, $D=costaware0.01, $R=lru, $csize=1e3, $window=60, $variance=0.05, $mytime=1800000, $kappa=1, $priceratiovalue=100, $splits=0.25_0.25_0.5, $pricebits=0, $repetition=0"
attr kappa 1
attr lambda 100
attr measurement "$rep=9, $net=cost_scenario, $lambda=100, $a=0.9, $ctlg=1e5, $F=nrr, $ttl=10, $D=costaware0.01, $R=lru, $csize=1e3, $window=60, $variance=0.05, $mytime=1800000, $kappa=1, $priceratiovalue=100, $splits=0.25_0.25_0.5, $pricebits=0"
attr mytime 1800000
attr net cost_scenario
attr network networks.${net=cost_scenario}_network
attr pricebits 0
attr priceratiovalue 100
attr processid 14731
attr rep 9
attr repetition 0
attr replication #0
attr resultdir results
attr runnumber 131
attr seedset 9
attr splits 0.25_0.25_0.5
attr ttl 10
attr variance 0.05
attr window 60

scalar . 	a 	0.9
scalar . 	csize 	1e3
scalar . 	ctlg 	1e5
scalar . 	kappa 	1
scalar . 	lambda 	100
scalar . 	mytime 	1800000
scalar . 	pricebits 	0
scalar . 	priceratiovalue 	100
scalar . 	rep 	9
scalar . 	ttl 	10
scalar . 	variance 	0.05
scalar . 	window 	60
scalar cost_scenario_network.content_distribution 	repo-0 	1
scalar cost_scenario_network.content_distribution 	repo-1 	2
scalar cost_scenario_network.content_distribution 	repo-2 	3
scalar cost_scenario_network.content_distribution 	client-0 	0
scalar cost_scenario_network.content_distribution 	repo-0_card 	24839
scalar cost_scenario_network.content_distribution 	repo-0_price 	0
scalar cost_scenario_network.content_distribution 	repo-1_card 	25291
scalar cost_scenario_network.content_distribution 	repo-1_price 	100
scalar cost_scenario_network.content_distribution 	repo-2_card 	49870
scalar cost_scenario_network.content_distribution 	repo-2_price 	1
scalar cost_scenario_network.statistics 	repo_popularity[0] 	0.28077422048503
scalar cost_scenario_network.statistics 	repo_popularity[1] 	0.24257820712852
scalar cost_scenario_network.statistics 	repo_popularity[2] 	0.47664757238645
scalar cost_scenario_network.statistics 	stabilization_time 	3086.5
scalar cost_scenario_network.statistics 	p_hit 	0.18670876210491
scalar cost_scenario_network.statistics 	interests 	75838383.75
scalar cost_scenario_network.statistics 	data 	30839346.5
scalar cost_scenario_network.statistics 	hdistance 	1.3706669468802
scalar cost_scenario_network.statistics 	avg_time 	0
scalar cost_scenario_network.statistics 	downloads 	179996149
scalar cost_scenario_network.statistics 	total_cost 	2168447484
scalar cost_scenario_network.statistics 	total_replicas 	100000
scalar cost_scenario_network.statistics 	inner_hit 	0.31466652655997
scalar cost_scenario_network.statistics 	interests_sent 	179996149
scalar cost_scenario_network.node[0].core_layer 	interests[0] 	179996149
scalar cost_scenario_network.node[0].core_layer 	data[0] 	123357386
scalar cost_scenario_network.node[0].core_layer 	repo_int[0] 	123357386
scalar cost_scenario_network.node[0].content_store 	p_hit[0] 	0.31466652655997
scalar cost_scenario_network.node[0].content_store 	hits[0] 	56638763
scalar cost_scenario_network.node[0].content_store 	misses[0] 	123357386
scalar cost_scenario_network.node[0].content_store 	decision_yes[0] 	431887
scalar cost_scenario_network.node[0].content_store 	decision_no[0] 	122925499
scalar cost_scenario_network.node[0].content_store 	decision_ratio[0] 	0.0035011036955663
scalar cost_scenario_network.node[0].content_store 	cache_value[0] 	280.78070930906
scalar cost_scenario_network.node[0].content_store 	average_price_of_cache[0] 	65.152
scalar cost_scenario_network.node[0].content_store 	correction_factor[0] 	0.00019900497512438
scalar cost_scenario_network.node[0].content_store 	kappa[0] 	1
scalar cost_scenario_network.node[1].core_layer 	interests[1] 	50536358
scalar cost_scenario_network.node[1].core_layer 	repo_load[1] 	50536358
scalar cost_scenario_network.node[1].core_layer 	data[1] 	0
scalar cost_scenario_network.node[1].content_store 	p_hit[1] 	0
scalar cost_scenario_network.node[1].content_store 	hits[1] 	0
scalar cost_scenario_network.node[1].content_store 	misses[1] 	50536358
scalar cost_scenario_network.node[1].content_store 	decision_yes[1] 	0
scalar cost_scenario_network.node[1].content_store 	decision_no[1] 	50536358
scalar cost_scenario_network.node[1].content_store 	decision_ratio[1] 	0
scalar cost_scenario_network.node[1].content_store 	cache_value[1] 	2.1489215307283e-316
scalar cost_scenario_network.node[1].content_store 	average_price_of_cache[1] 	-nan
scalar cost_scenario_network.node[1].content_store 	correction_factor[1] 	0.00019900497512438
scalar cost_scenario_network.node[1].content_store 	kappa[1] 	1
scalar cost_scenario_network.node[2].core_layer 	interests[2] 	21167944
scalar cost_scenario_network.node[2].core_layer 	repo_load[2] 	21167944
scalar cost_scenario_network.node[2].core_layer 	data[2] 	0
scalar cost_scenario_network.node[2].content_store 	p_hit[2] 	0
scalar cost_scenario_network.node[2].content_store 	hits[2] 	0
scalar cost_scenario_network.node[2].content_store 	misses[2] 	21167944
scalar cost_scenario_network.node[2].content_store 	decision_yes[2] 	0
scalar cost_scenario_network.node[2].content_store 	decision_no[2] 	21167944
scalar cost_scenario_network.node[2].content_store 	decision_ratio[2] 	0
scalar cost_scenario_network.node[2].content_store 	cache_value[2] 	2.14908042224e-316
scalar cost_scenario_network.node[2].content_store 	average_price_of_cache[2] 	-nan
scalar cost_scenario_network.node[2].content_store 	correction_factor[2] 	0.00019900497512438
scalar cost_scenario_network.node[2].content_store 	kappa[2] 	1
scalar cost_scenario_network.node[3].core_layer 	interests[3] 	51653084
scalar cost_scenario_network.node[3].core_layer 	repo_load[3] 	51653084
scalar cost_scenario_network.node[3].core_layer 	data[3] 	0
scalar cost_scenario_network.node[3].content_store 	p_hit[3] 	0
scalar cost_scenario_network.node[3].content_store 	hits[3] 	0
scalar cost_scenario_network.node[3].content_store 	misses[3] 	51653084
scalar cost_scenario_network.node[3].content_store 	decision_yes[3] 	0
scalar cost_scenario_network.node[3].content_store 	decision_no[3] 	51653084
scalar cost_scenario_network.node[3].content_store 	decision_ratio[3] 	0
scalar cost_scenario_network.node[3].content_store 	cache_value[3] 	2.1492393137517e-316
scalar cost_scenario_network.node[3].content_store 	average_price_of_cache[3] 	-nan
scalar cost_scenario_network.node[3].content_store 	correction_factor[3] 	0.00019900497512438
scalar cost_scenario_network.node[3].content_store 	kappa[3] 	1
scalar cost_scenario_network.client[0] 	hdistance[0] 	1.3706669468802
scalar cost_scenario_network.client[0] 	downloads[0] 	179996149
scalar cost_scenario_network.client[0] 	avg_time[0] 	0
scalar cost_scenario_network.client[0] 	interests_sent[0] 	179996149
