version 2
run General-15-20141007-11:27:00-514
attr D fix0.5
attr F nrr
attr R lru
attr a 1
attr configname General
attr csize 1e3
attr ctlg 1e5
attr datetime 20141007-11:27:00
attr experiment General
attr inifile omnetpp.ini
attr iterationvars "$net=abilene_cost, $rep=4, $priceratiovalue=10, $weights=0.333_0.333_0.334, $lambda=100, $a=1, $ctlg=1e5, $F=nrr, $ttl=10, $D=fix0.5, $xi=1, $R=lru, $csize=1e3, $pricebits=0, $window=60, $variance=0.05, $mytime=1800"
attr iterationvars2 "$net=abilene_cost, $rep=4, $priceratiovalue=10, $weights=0.333_0.333_0.334, $lambda=100, $a=1, $ctlg=1e5, $F=nrr, $ttl=10, $D=fix0.5, $xi=1, $R=lru, $csize=1e3, $pricebits=0, $window=60, $variance=0.05, $mytime=1800, $repetition=0"
attr lambda 100
attr measurement "$net=abilene_cost, $rep=4, $priceratiovalue=10, $weights=0.333_0.333_0.334, $lambda=100, $a=1, $ctlg=1e5, $F=nrr, $ttl=10, $D=fix0.5, $xi=1, $R=lru, $csize=1e3, $pricebits=0, $window=60, $variance=0.05, $mytime=1800"
attr mytime 1800
attr net abilene_cost
attr network networks.${net=abilene_cost,geant_cost}_network
attr pricebits 0
attr priceratiovalue 10
attr processid 514
attr rep 4
attr repetition 0
attr replication #0
attr resultdir results
attr runnumber 15
attr seedset 4
attr ttl 10
attr variance 0.05
attr weights 0.333_0.333_0.334
attr window 60
attr xi 1

scalar . 	a 	1
scalar . 	csize 	1e3
scalar . 	ctlg 	1e5
scalar . 	lambda 	100
scalar . 	mytime 	1800
scalar . 	pricebits 	0
scalar . 	priceratiovalue 	10
scalar . 	rep 	4
scalar . 	ttl 	10
scalar . 	variance 	0.05
scalar . 	window 	60
scalar . 	xi 	1
scalar abilene_cost_network.content_distribution 	repo-0 	2
scalar abilene_cost_network.content_distribution 	repo-1 	0
scalar abilene_cost_network.content_distribution 	repo-2 	10
scalar abilene_cost_network.content_distribution 	client-0 	6
scalar abilene_cost_network.content_distribution 	client-1 	2
scalar abilene_cost_network.content_distribution 	client-2 	4
scalar abilene_cost_network.content_distribution 	repo-0_card 	33274
scalar abilene_cost_network.content_distribution 	repo-0_price 	0
scalar abilene_cost_network.content_distribution 	repo-1_card 	33153
scalar abilene_cost_network.content_distribution 	repo-1_price 	1
scalar abilene_cost_network.content_distribution 	repo-2_card 	33573
scalar abilene_cost_network.content_distribution 	repo-2_price 	10
scalar abilene_cost_network.statistics 	repo_popularity[0] 	0.33945880017902
scalar abilene_cost_network.statistics 	repo_popularity[1] 	0.30988277584688
scalar abilene_cost_network.statistics 	repo_popularity[2] 	0.35065842397411
scalar abilene_cost_network.statistics 	stabilization_time 	128.8
scalar abilene_cost_network.statistics 	p_hit 	0.16304773259028
scalar abilene_cost_network.statistics 	interests 	136341
scalar abilene_cost_network.statistics 	data 	87258.818181818
scalar abilene_cost_network.statistics 	hdistance 	2.3250141265425
scalar abilene_cost_network.statistics 	avg_time 	0.010777835012
scalar abilene_cost_network.statistics 	downloads 	539631
scalar abilene_cost_network.statistics 	total_cost 	988048
scalar abilene_cost_network.statistics 	total_replicas 	100000
scalar abilene_cost_network.statistics 	inner_hit 	0.45327269930749
scalar abilene_cost_network.node[0].core_layer 	interests[0] 	94030
scalar abilene_cost_network.node[0].core_layer 	repo_load[0] 	91928
scalar abilene_cost_network.node[0].core_layer 	data[0] 	0
scalar abilene_cost_network.node[0].core_layer 	repo_int[0] 	295031
scalar abilene_cost_network.node[0].content_store 	p_hit[0] 	0.022354567691162
scalar abilene_cost_network.node[0].content_store 	hits[0] 	2102
scalar abilene_cost_network.node[0].content_store 	misses[0] 	91928
scalar abilene_cost_network.node[0].content_store 	decision_yes[0] 	45812
scalar abilene_cost_network.node[0].content_store 	decision_no[0] 	46116
scalar abilene_cost_network.node[0].content_store 	decision_ratio[0] 	0.49834653206858
scalar abilene_cost_network.node[1].core_layer 	interests[1] 	157368
scalar abilene_cost_network.node[1].core_layer 	data[1] 	154937
scalar abilene_cost_network.node[1].content_store 	p_hit[1] 	0.015447867419043
scalar abilene_cost_network.node[1].content_store 	hits[1] 	2431
scalar abilene_cost_network.node[1].content_store 	misses[1] 	154937
scalar abilene_cost_network.node[1].content_store 	decision_yes[1] 	77381
scalar abilene_cost_network.node[1].content_store 	decision_no[1] 	77556
scalar abilene_cost_network.node[1].content_store 	decision_ratio[1] 	0.49943525432918
scalar abilene_cost_network.node[2].core_layer 	interests[2] 	347619
scalar abilene_cost_network.node[2].core_layer 	repo_load[2] 	113491
scalar abilene_cost_network.node[2].core_layer 	data[2] 	189428
scalar abilene_cost_network.node[2].content_store 	p_hit[2] 	0.12810864768612
scalar abilene_cost_network.node[2].content_store 	hits[2] 	44533
scalar abilene_cost_network.node[2].content_store 	misses[2] 	303086
scalar abilene_cost_network.node[2].content_store 	decision_yes[2] 	151729
scalar abilene_cost_network.node[2].content_store 	decision_no[2] 	151169
scalar abilene_cost_network.node[2].content_store 	decision_ratio[2] 	0.50092440359461
scalar abilene_cost_network.node[3].core_layer 	interests[3] 	199733
scalar abilene_cost_network.node[3].core_layer 	data[3] 	189791
scalar abilene_cost_network.node[3].content_store 	p_hit[3] 	0.049726384723606
scalar abilene_cost_network.node[3].content_store 	hits[3] 	9932
scalar abilene_cost_network.node[3].content_store 	misses[3] 	189801
scalar abilene_cost_network.node[3].content_store 	decision_yes[3] 	94883
scalar abilene_cost_network.node[3].content_store 	decision_no[3] 	94893
scalar abilene_cost_network.node[3].content_store 	decision_ratio[3] 	0.49997365314898
scalar abilene_cost_network.node[4].core_layer 	interests[4] 	199853
scalar abilene_cost_network.node[4].core_layer 	data[4] 	132692
scalar abilene_cost_network.node[4].content_store 	p_hit[4] 	0.33548658263824
scalar abilene_cost_network.node[4].content_store 	hits[4] 	67048
scalar abilene_cost_network.node[4].content_store 	misses[4] 	132805
scalar abilene_cost_network.node[4].content_store 	decision_yes[4] 	66489
scalar abilene_cost_network.node[4].content_store 	decision_no[4] 	66203
scalar abilene_cost_network.node[4].content_store 	decision_ratio[4] 	0.5010776836584
scalar abilene_cost_network.node[5].core_layer 	interests[5] 	51360
scalar abilene_cost_network.node[5].core_layer 	data[5] 	2188
scalar abilene_cost_network.node[5].content_store 	p_hit[5] 	0.95739875389408
scalar abilene_cost_network.node[5].content_store 	hits[5] 	49172
scalar abilene_cost_network.node[5].content_store 	misses[5] 	2188
scalar abilene_cost_network.node[5].content_store 	decision_yes[5] 	1107
scalar abilene_cost_network.node[5].content_store 	decision_no[5] 	1081
scalar abilene_cost_network.node[5].content_store 	decision_ratio[5] 	0.50594149908592
scalar abilene_cost_network.node[6].core_layer 	interests[6] 	182203
scalar abilene_cost_network.node[6].core_layer 	data[6] 	125879
scalar abilene_cost_network.node[6].content_store 	p_hit[6] 	0.30883684681372
scalar abilene_cost_network.node[6].content_store 	hits[6] 	56271
scalar abilene_cost_network.node[6].content_store 	misses[6] 	125932
scalar abilene_cost_network.node[6].content_store 	decision_yes[6] 	62923
scalar abilene_cost_network.node[6].content_store 	decision_no[6] 	62956
scalar abilene_cost_network.node[6].content_store 	decision_ratio[6] 	0.49986892174231
scalar abilene_cost_network.node[7].core_layer 	interests[7] 	106403
scalar abilene_cost_network.node[7].core_layer 	data[7] 	102542
scalar abilene_cost_network.node[7].content_store 	p_hit[7] 	0.036314765561121
scalar abilene_cost_network.node[7].content_store 	hits[7] 	3864
scalar abilene_cost_network.node[7].content_store 	misses[7] 	102539
scalar abilene_cost_network.node[7].content_store 	decision_yes[7] 	51429
scalar abilene_cost_network.node[7].content_store 	decision_no[7] 	51108
scalar abilene_cost_network.node[7].content_store 	decision_ratio[7] 	0.50156528862752
scalar abilene_cost_network.node[8].core_layer 	interests[8] 	37885
scalar abilene_cost_network.node[8].core_layer 	data[8] 	32007
scalar abilene_cost_network.node[8].content_store 	p_hit[8] 	0.155100963442
scalar abilene_cost_network.node[8].content_store 	hits[8] 	5876
scalar abilene_cost_network.node[8].content_store 	misses[8] 	32009
scalar abilene_cost_network.node[8].content_store 	decision_yes[8] 	15939
scalar abilene_cost_network.node[8].content_store 	decision_no[8] 	16068
scalar abilene_cost_network.node[8].content_store 	decision_ratio[8] 	0.49798481582154
scalar abilene_cost_network.node[9].core_layer 	interests[9] 	32007
scalar abilene_cost_network.node[9].core_layer 	data[9] 	30383
scalar abilene_cost_network.node[9].content_store 	p_hit[9] 	0.050738900865436
scalar abilene_cost_network.node[9].content_store 	hits[9] 	1624
scalar abilene_cost_network.node[9].content_store 	misses[9] 	30383
scalar abilene_cost_network.node[9].content_store 	decision_yes[9] 	15312
scalar abilene_cost_network.node[9].content_store 	decision_no[9] 	15071
scalar abilene_cost_network.node[9].content_store 	decision_ratio[9] 	0.50396603363723
scalar abilene_cost_network.node[10].core_layer 	interests[10] 	91290
scalar abilene_cost_network.node[10].core_layer 	repo_load[10] 	89612
scalar abilene_cost_network.node[10].core_layer 	data[10] 	0
scalar abilene_cost_network.node[10].content_store 	p_hit[10] 	0.018380983678388
scalar abilene_cost_network.node[10].content_store 	hits[10] 	1678
scalar abilene_cost_network.node[10].content_store 	misses[10] 	89612
scalar abilene_cost_network.node[10].content_store 	decision_yes[10] 	44695
scalar abilene_cost_network.node[10].content_store 	decision_no[10] 	44917
scalar abilene_cost_network.node[10].content_store 	decision_ratio[10] 	0.49876132660804
scalar abilene_cost_network.client[2] 	hdistance[2] 	1.6137491851777
scalar abilene_cost_network.client[2] 	downloads[2] 	179487
scalar abilene_cost_network.client[2] 	avg_time[2] 	0.007244842168
scalar abilene_cost_network.client[4] 	hdistance[4] 	2.4944262440479
scalar abilene_cost_network.client[4] 	downloads[4] 	180399
scalar abilene_cost_network.client[4] 	avg_time[4] 	0.010409154708
scalar abilene_cost_network.client[6] 	hdistance[6] 	2.8668669504019
scalar abilene_cost_network.client[6] 	downloads[6] 	179745
scalar abilene_cost_network.client[6] 	avg_time[6] 	0.014679508162
