version 2
run General-15-20141007-10:58:59-8405
attr D fix0.5
attr F nrr
attr R lru
attr a 1
attr configname General
attr csize 1e3
attr ctlg 1e5
attr datetime 20141007-10:58:59
attr experiment General
attr inifile omnetpp.ini
attr iterationvars "$net=abilene_cost, $rep=1, $priceratiovalue=10, $weights=0.333_0.333_0.334, $lambda=100, $a=1, $ctlg=1e5, $F=nrr, $ttl=10, $D=fix0.5, $xi=1, $R=lru, $csize=1e3, $pricebits=0, $window=60, $variance=0.05, $mytime=1800"
attr iterationvars2 "$net=abilene_cost, $rep=1, $priceratiovalue=10, $weights=0.333_0.333_0.334, $lambda=100, $a=1, $ctlg=1e5, $F=nrr, $ttl=10, $D=fix0.5, $xi=1, $R=lru, $csize=1e3, $pricebits=0, $window=60, $variance=0.05, $mytime=1800, $repetition=0"
attr lambda 100
attr measurement "$net=abilene_cost, $rep=1, $priceratiovalue=10, $weights=0.333_0.333_0.334, $lambda=100, $a=1, $ctlg=1e5, $F=nrr, $ttl=10, $D=fix0.5, $xi=1, $R=lru, $csize=1e3, $pricebits=0, $window=60, $variance=0.05, $mytime=1800"
attr mytime 1800
attr net abilene_cost
attr network networks.${net=abilene_cost,geant_cost}_network
attr pricebits 0
attr priceratiovalue 10
attr processid 8405
attr rep 1
attr repetition 0
attr replication #0
attr resultdir results
attr runnumber 15
attr seedset 1
attr ttl 10
attr variance 0.05
attr weights 0.333_0.333_0.334
attr window 60
attr xi 1

scalar . 	a 	1
scalar . 	csize 	1e3
scalar . 	ctlg 	1e5
scalar . 	lambda 	100
scalar . 	mytime 	1800
scalar . 	pricebits 	0
scalar . 	priceratiovalue 	10
scalar . 	rep 	1
scalar . 	ttl 	10
scalar . 	variance 	0.05
scalar . 	window 	60
scalar . 	xi 	1
scalar abilene_cost_network.content_distribution 	repo-0 	10
scalar abilene_cost_network.content_distribution 	repo-1 	7
scalar abilene_cost_network.content_distribution 	repo-2 	5
scalar abilene_cost_network.content_distribution 	client-0 	8
scalar abilene_cost_network.content_distribution 	client-1 	7
scalar abilene_cost_network.content_distribution 	client-2 	2
scalar abilene_cost_network.content_distribution 	repo-0_card 	33397
scalar abilene_cost_network.content_distribution 	repo-0_price 	0
scalar abilene_cost_network.content_distribution 	repo-1_card 	33041
scalar abilene_cost_network.content_distribution 	repo-1_price 	10
scalar abilene_cost_network.content_distribution 	repo-2_card 	33562
scalar abilene_cost_network.content_distribution 	repo-2_price 	1
scalar abilene_cost_network.statistics 	repo_popularity[0] 	0.36106327575467
scalar abilene_cost_network.statistics 	repo_popularity[1] 	0.3490006524958
scalar abilene_cost_network.statistics 	repo_popularity[2] 	0.28993607174955
scalar abilene_cost_network.statistics 	stabilization_time 	36060
scalar abilene_cost_network.statistics 	p_hit 	0.18797910824374
scalar abilene_cost_network.statistics 	interests 	112911
scalar abilene_cost_network.statistics 	data 	63834
scalar abilene_cost_network.statistics 	hdistance 	1.8683495092745
scalar abilene_cost_network.statistics 	avg_time 	0.008265201006
scalar abilene_cost_network.statistics 	downloads 	539562
scalar abilene_cost_network.statistics 	total_cost 	1247973
scalar abilene_cost_network.statistics 	total_replicas 	100000
scalar abilene_cost_network.statistics 	inner_hit 	0.43287889065575
scalar abilene_cost_network.node[0].core_layer 	interests[0] 	0
scalar abilene_cost_network.node[0].core_layer 	data[0] 	0
scalar abilene_cost_network.node[0].core_layer 	repo_int[0] 	305997
scalar abilene_cost_network.node[0].content_store 	p_hit[0] 	-nan
scalar abilene_cost_network.node[0].content_store 	hits[0] 	0
scalar abilene_cost_network.node[0].content_store 	misses[0] 	0
scalar abilene_cost_network.node[0].content_store 	decision_yes[0] 	0
scalar abilene_cost_network.node[0].content_store 	decision_no[0] 	0
scalar abilene_cost_network.node[0].content_store 	decision_ratio[0] 	0
scalar abilene_cost_network.node[1].core_layer 	interests[1] 	41058
scalar abilene_cost_network.node[1].core_layer 	data[1] 	32592
scalar abilene_cost_network.node[1].content_store 	p_hit[1] 	0.20619611281602
scalar abilene_cost_network.node[1].content_store 	hits[1] 	8466
scalar abilene_cost_network.node[1].content_store 	misses[1] 	32592
scalar abilene_cost_network.node[1].content_store 	decision_yes[1] 	16192
scalar abilene_cost_network.node[1].content_store 	decision_no[1] 	16400
scalar abilene_cost_network.node[1].content_store 	decision_ratio[1] 	0.49680903289151
scalar abilene_cost_network.node[2].core_layer 	interests[2] 	201462
scalar abilene_cost_network.node[2].core_layer 	data[2] 	134980
scalar abilene_cost_network.node[2].content_store 	p_hit[2] 	0.32953112745828
scalar abilene_cost_network.node[2].content_store 	hits[2] 	66388
scalar abilene_cost_network.node[2].content_store 	misses[2] 	135074
scalar abilene_cost_network.node[2].content_store 	decision_yes[2] 	67381
scalar abilene_cost_network.node[2].content_store 	decision_no[2] 	67598
scalar abilene_cost_network.node[2].content_store 	decision_ratio[2] 	0.49919617125627
scalar abilene_cost_network.node[3].core_layer 	interests[3] 	95843
scalar abilene_cost_network.node[3].core_layer 	data[3] 	83068
scalar abilene_cost_network.node[3].content_store 	p_hit[3] 	0.13327003537035
scalar abilene_cost_network.node[3].content_store 	hits[3] 	12773
scalar abilene_cost_network.node[3].content_store 	misses[3] 	83070
scalar abilene_cost_network.node[3].content_store 	decision_yes[3] 	41424
scalar abilene_cost_network.node[3].content_store 	decision_no[3] 	41642
scalar abilene_cost_network.node[3].content_store 	decision_ratio[3] 	0.4986877904317
scalar abilene_cost_network.node[4].core_layer 	interests[4] 	37722
scalar abilene_cost_network.node[4].core_layer 	data[4] 	32950
scalar abilene_cost_network.node[4].content_store 	p_hit[4] 	0.12650442712475
scalar abilene_cost_network.node[4].content_store 	hits[4] 	4772
scalar abilene_cost_network.node[4].content_store 	misses[4] 	32950
scalar abilene_cost_network.node[4].content_store 	decision_yes[4] 	16509
scalar abilene_cost_network.node[4].content_store 	decision_no[4] 	16441
scalar abilene_cost_network.node[4].content_store 	decision_ratio[4] 	0.50103186646434
scalar abilene_cost_network.node[5].core_layer 	interests[5] 	97996
scalar abilene_cost_network.node[5].core_layer 	repo_load[5] 	95993
scalar abilene_cost_network.node[5].core_layer 	data[5] 	0
scalar abilene_cost_network.node[5].content_store 	p_hit[5] 	0.020439609779991
scalar abilene_cost_network.node[5].content_store 	hits[5] 	2003
scalar abilene_cost_network.node[5].content_store 	misses[5] 	95993
scalar abilene_cost_network.node[5].content_store 	decision_yes[5] 	47967
scalar abilene_cost_network.node[5].content_store 	decision_no[5] 	48026
scalar abilene_cost_network.node[5].content_store 	decision_ratio[5] 	0.49969268592502
scalar abilene_cost_network.node[6].core_layer 	interests[6] 	71313
scalar abilene_cost_network.node[6].core_layer 	data[6] 	65046
scalar abilene_cost_network.node[6].content_store 	p_hit[6] 	0.087880190147659
scalar abilene_cost_network.node[6].content_store 	hits[6] 	6267
scalar abilene_cost_network.node[6].content_store 	misses[6] 	65046
scalar abilene_cost_network.node[6].content_store 	decision_yes[6] 	32858
scalar abilene_cost_network.node[6].content_store 	decision_no[6] 	32188
scalar abilene_cost_network.node[6].content_store 	decision_ratio[6] 	0.50515020139594
scalar abilene_cost_network.node[7].core_layer 	interests[7] 	296348
scalar abilene_cost_network.node[7].core_layer 	repo_load[7] 	115198
scalar abilene_cost_network.node[7].core_layer 	data[7] 	125741
scalar abilene_cost_network.node[7].content_store 	p_hit[7] 	0.18655432127094
scalar abilene_cost_network.node[7].content_store 	hits[7] 	55285
scalar abilene_cost_network.node[7].content_store 	misses[7] 	241063
scalar abilene_cost_network.node[7].content_store 	decision_yes[7] 	120627
scalar abilene_cost_network.node[7].content_store 	decision_no[7] 	120309
scalar abilene_cost_network.node[7].content_store 	decision_ratio[7] 	0.50065992628748
scalar abilene_cost_network.node[8].core_layer 	interests[8] 	232102
scalar abilene_cost_network.node[8].core_layer 	data[8] 	163191
scalar abilene_cost_network.node[8].content_store 	p_hit[8] 	0.29622752065902
scalar abilene_cost_network.node[8].content_store 	hits[8] 	68755
scalar abilene_cost_network.node[8].content_store 	misses[8] 	163347
scalar abilene_cost_network.node[8].content_store 	decision_yes[8] 	81679
scalar abilene_cost_network.node[8].content_store 	decision_no[8] 	81511
scalar abilene_cost_network.node[8].content_store 	decision_ratio[8] 	0.50051473742264
scalar abilene_cost_network.node[9].core_layer 	interests[9] 	70979
scalar abilene_cost_network.node[9].core_layer 	data[9] 	64606
scalar abilene_cost_network.node[9].content_store 	p_hit[9] 	0.089787120134124
scalar abilene_cost_network.node[9].content_store 	hits[9] 	6373
scalar abilene_cost_network.node[9].content_store 	misses[9] 	64606
scalar abilene_cost_network.node[9].content_store 	decision_yes[9] 	32347
scalar abilene_cost_network.node[9].content_store 	decision_no[9] 	32259
scalar abilene_cost_network.node[9].content_store 	decision_ratio[9] 	0.50068105129555
scalar abilene_cost_network.node[10].core_layer 	interests[10] 	97198
scalar abilene_cost_network.node[10].core_layer 	repo_load[10] 	94806
scalar abilene_cost_network.node[10].core_layer 	data[10] 	0
scalar abilene_cost_network.node[10].content_store 	p_hit[10] 	0.024609559867487
scalar abilene_cost_network.node[10].content_store 	hits[10] 	2392
scalar abilene_cost_network.node[10].content_store 	misses[10] 	94806
scalar abilene_cost_network.node[10].content_store 	decision_yes[10] 	47314
scalar abilene_cost_network.node[10].content_store 	decision_no[10] 	47492
scalar abilene_cost_network.node[10].content_store 	decision_ratio[10] 	0.49906124084974
scalar abilene_cost_network.client[2] 	hdistance[2] 	2.0437658075477
scalar abilene_cost_network.client[2] 	downloads[2] 	180689
scalar abilene_cost_network.client[2] 	avg_time[2] 	0.008466953661
scalar abilene_cost_network.client[7] 	hdistance[7] 	1.6942999693397
scalar abilene_cost_network.client[7] 	downloads[7] 	179385
scalar abilene_cost_network.client[7] 	avg_time[7] 	0.007318989606
scalar abilene_cost_network.client[8] 	hdistance[8] 	1.866982750936
scalar abilene_cost_network.client[8] 	downloads[8] 	179488
scalar abilene_cost_network.client[8] 	avg_time[8] 	0.009009659751
