version 2
run General-15-20141007-11:53:11-22101
attr D fix0.5
attr F nrr
attr R lru
attr a 1
attr configname General
attr csize 1e3
attr ctlg 1e5
attr datetime 20141007-11:53:11
attr experiment General
attr inifile omnetpp.ini
attr iterationvars "$net=abilene_cost, $rep=3, $priceratiovalue=10, $weights=0.333_0.333_0.334, $lambda=100, $a=1, $ctlg=1e5, $F=nrr, $ttl=10, $D=fix0.5, $xi=1, $R=lru, $csize=1e3, $pricebits=0, $window=60, $variance=0.05, $mytime=1800"
attr iterationvars2 "$net=abilene_cost, $rep=3, $priceratiovalue=10, $weights=0.333_0.333_0.334, $lambda=100, $a=1, $ctlg=1e5, $F=nrr, $ttl=10, $D=fix0.5, $xi=1, $R=lru, $csize=1e3, $pricebits=0, $window=60, $variance=0.05, $mytime=1800, $repetition=0"
attr lambda 100
attr measurement "$net=abilene_cost, $rep=3, $priceratiovalue=10, $weights=0.333_0.333_0.334, $lambda=100, $a=1, $ctlg=1e5, $F=nrr, $ttl=10, $D=fix0.5, $xi=1, $R=lru, $csize=1e3, $pricebits=0, $window=60, $variance=0.05, $mytime=1800"
attr mytime 1800
attr net abilene_cost
attr network networks.${net=abilene_cost,geant_cost}_network
attr pricebits 0
attr priceratiovalue 10
attr processid 22101
attr rep 3
attr repetition 0
attr replication #0
attr resultdir results
attr runnumber 15
attr seedset 3
attr ttl 10
attr variance 0.05
attr weights 0.333_0.333_0.334
attr window 60
attr xi 1

scalar . 	a 	1
scalar . 	csize 	1e3
scalar . 	ctlg 	1e5
scalar . 	lambda 	100
scalar . 	mytime 	1800
scalar . 	pricebits 	0
scalar . 	priceratiovalue 	10
scalar . 	rep 	3
scalar . 	ttl 	10
scalar . 	variance 	0.05
scalar . 	window 	60
scalar . 	xi 	1
scalar abilene_cost_network.content_distribution 	repo-0 	9
scalar abilene_cost_network.content_distribution 	repo-1 	4
scalar abilene_cost_network.content_distribution 	repo-2 	0
scalar abilene_cost_network.content_distribution 	client-0 	9
scalar abilene_cost_network.content_distribution 	client-1 	0
scalar abilene_cost_network.content_distribution 	client-2 	1
scalar abilene_cost_network.content_distribution 	repo-0_card 	33498
scalar abilene_cost_network.content_distribution 	repo-0_price 	0
scalar abilene_cost_network.content_distribution 	repo-1_card 	33168
scalar abilene_cost_network.content_distribution 	repo-1_price 	10
scalar abilene_cost_network.content_distribution 	repo-2_card 	33334
scalar abilene_cost_network.content_distribution 	repo-2_price 	1
scalar abilene_cost_network.statistics 	repo_popularity[0] 	0.34820484875244
scalar abilene_cost_network.statistics 	repo_popularity[1] 	0.25519349814637
scalar abilene_cost_network.statistics 	repo_popularity[2] 	0.3966016531012
scalar abilene_cost_network.statistics 	stabilization_time 	36060
scalar abilene_cost_network.statistics 	p_hit 	0.1736050584351
scalar abilene_cost_network.statistics 	interests 	112230.18181818
scalar abilene_cost_network.statistics 	data 	63231.090909091
scalar abilene_cost_network.statistics 	hdistance 	1.8935190537
scalar abilene_cost_network.statistics 	avg_time 	0.008325725942
scalar abilene_cost_network.statistics 	downloads 	538670
scalar abilene_cost_network.statistics 	total_cost 	1050861
scalar abilene_cost_network.statistics 	total_replicas 	100000
scalar abilene_cost_network.statistics 	inner_hit 	0.39797464124603
scalar abilene_cost_network.node[0].core_layer 	interests[0] 	259314
scalar abilene_cost_network.node[0].core_layer 	repo_load[0] 	110751
scalar abilene_cost_network.node[0].core_layer 	data[0] 	88766
scalar abilene_cost_network.node[0].core_layer 	repo_int[0] 	324293
scalar abilene_cost_network.node[0].content_store 	p_hit[0] 	0.23013797943806
scalar abilene_cost_network.node[0].content_store 	hits[0] 	59678
scalar abilene_cost_network.node[0].content_store 	misses[0] 	199636
scalar abilene_cost_network.node[0].content_store 	decision_yes[0] 	99865
scalar abilene_cost_network.node[0].content_store 	decision_no[0] 	99652
scalar abilene_cost_network.node[0].content_store 	decision_ratio[0] 	0.50053378910068
scalar abilene_cost_network.node[1].core_layer 	interests[1] 	227233
scalar abilene_cost_network.node[1].core_layer 	data[1] 	166002
scalar abilene_cost_network.node[1].content_store 	p_hit[1] 	0.26882098990904
scalar abilene_cost_network.node[1].content_store 	hits[1] 	61085
scalar abilene_cost_network.node[1].content_store 	misses[1] 	166148
scalar abilene_cost_network.node[1].content_store 	decision_yes[1] 	83196
scalar abilene_cost_network.node[1].content_store 	decision_no[1] 	82803
scalar abilene_cost_network.node[1].content_store 	decision_ratio[1] 	0.50118374207074
scalar abilene_cost_network.node[2].core_layer 	interests[2] 	111419
scalar abilene_cost_network.node[2].core_layer 	data[2] 	104212
scalar abilene_cost_network.node[2].content_store 	p_hit[2] 	0.064540159218805
scalar abilene_cost_network.node[2].content_store 	hits[2] 	7191
scalar abilene_cost_network.node[2].content_store 	misses[2] 	104228
scalar abilene_cost_network.node[2].content_store 	decision_yes[2] 	52225
scalar abilene_cost_network.node[2].content_store 	decision_no[2] 	51983
scalar abilene_cost_network.node[2].content_store 	decision_ratio[2] 	0.50116113925994
scalar abilene_cost_network.node[3].core_layer 	interests[3] 	97157
scalar abilene_cost_network.node[3].core_layer 	data[3] 	94998
scalar abilene_cost_network.node[3].content_store 	p_hit[3] 	0.022232057391644
scalar abilene_cost_network.node[3].content_store 	hits[3] 	2160
scalar abilene_cost_network.node[3].content_store 	misses[3] 	94997
scalar abilene_cost_network.node[3].content_store 	decision_yes[3] 	47350
scalar abilene_cost_network.node[3].content_store 	decision_no[3] 	47648
scalar abilene_cost_network.node[3].content_store 	decision_ratio[3] 	0.49843154592728
scalar abilene_cost_network.node[4].core_layer 	interests[4] 	94998
scalar abilene_cost_network.node[4].core_layer 	repo_load[4] 	94011
scalar abilene_cost_network.node[4].core_layer 	data[4] 	0
scalar abilene_cost_network.node[4].content_store 	p_hit[4] 	0.010389692414577
scalar abilene_cost_network.node[4].content_store 	hits[4] 	987
scalar abilene_cost_network.node[4].content_store 	misses[4] 	94011
scalar abilene_cost_network.node[4].content_store 	decision_yes[4] 	47232
scalar abilene_cost_network.node[4].content_store 	decision_no[4] 	46779
scalar abilene_cost_network.node[4].content_store 	decision_ratio[4] 	0.5024092925296
scalar abilene_cost_network.node[5].core_layer 	interests[5] 	0
scalar abilene_cost_network.node[5].core_layer 	data[5] 	0
scalar abilene_cost_network.node[5].content_store 	p_hit[5] 	-nan
scalar abilene_cost_network.node[5].content_store 	hits[5] 	0
scalar abilene_cost_network.node[5].content_store 	misses[5] 	0
scalar abilene_cost_network.node[5].content_store 	decision_yes[5] 	0
scalar abilene_cost_network.node[5].content_store 	decision_no[5] 	0
scalar abilene_cost_network.node[5].content_store 	decision_ratio[5] 	0
scalar abilene_cost_network.node[6].core_layer 	interests[6] 	0
scalar abilene_cost_network.node[6].core_layer 	data[6] 	0
scalar abilene_cost_network.node[6].content_store 	p_hit[6] 	-nan
scalar abilene_cost_network.node[6].content_store 	hits[6] 	0
scalar abilene_cost_network.node[6].content_store 	misses[6] 	0
scalar abilene_cost_network.node[6].content_store 	decision_yes[6] 	0
scalar abilene_cost_network.node[6].content_store 	decision_no[6] 	0
scalar abilene_cost_network.node[6].content_store 	decision_ratio[6] 	0
scalar abilene_cost_network.node[7].core_layer 	interests[7] 	0
scalar abilene_cost_network.node[7].core_layer 	data[7] 	0
scalar abilene_cost_network.node[7].content_store 	p_hit[7] 	-nan
scalar abilene_cost_network.node[7].content_store 	hits[7] 	0
scalar abilene_cost_network.node[7].content_store 	misses[7] 	0
scalar abilene_cost_network.node[7].content_store 	decision_yes[7] 	0
scalar abilene_cost_network.node[7].content_store 	decision_no[7] 	0
scalar abilene_cost_network.node[7].content_store 	decision_ratio[7] 	0
scalar abilene_cost_network.node[8].core_layer 	interests[8] 	48253
scalar abilene_cost_network.node[8].core_layer 	data[8] 	33807
scalar abilene_cost_network.node[8].content_store 	p_hit[8] 	0.29940107350838
scalar abilene_cost_network.node[8].content_store 	hits[8] 	14447
scalar abilene_cost_network.node[8].content_store 	misses[8] 	33806
scalar abilene_cost_network.node[8].content_store 	decision_yes[8] 	16882
scalar abilene_cost_network.node[8].content_store 	decision_no[8] 	16925
scalar abilene_cost_network.node[8].content_store 	decision_ratio[8] 	0.49936403703375
scalar abilene_cost_network.node[9].core_layer 	interests[9] 	260232
scalar abilene_cost_network.node[9].core_layer 	repo_load[9] 	119531
scalar abilene_cost_network.node[9].core_layer 	data[9] 	86668
scalar abilene_cost_network.node[9].content_store 	p_hit[9] 	0.20730732577085
scalar abilene_cost_network.node[9].content_store 	hits[9] 	53948
scalar abilene_cost_network.node[9].content_store 	misses[9] 	206284
scalar abilene_cost_network.node[9].content_store 	decision_yes[9] 	103015
scalar abilene_cost_network.node[9].content_store 	decision_no[9] 	103184
scalar abilene_cost_network.node[9].content_store 	decision_ratio[9] 	0.49959020169836
scalar abilene_cost_network.node[10].core_layer 	interests[10] 	135926
scalar abilene_cost_network.node[10].core_layer 	data[10] 	121089
scalar abilene_cost_network.node[10].content_store 	p_hit[10] 	0.1090666980563
scalar abilene_cost_network.node[10].content_store 	hits[10] 	14825
scalar abilene_cost_network.node[10].content_store 	misses[10] 	121101
scalar abilene_cost_network.node[10].content_store 	decision_yes[10] 	60433
scalar abilene_cost_network.node[10].content_store 	decision_no[10] 	60652
scalar abilene_cost_network.node[10].content_store 	decision_ratio[10] 	0.49909567659082
scalar abilene_cost_network.client[0] 	hdistance[0] 	1.9231512457205
scalar abilene_cost_network.client[0] 	downloads[0] 	179053
scalar abilene_cost_network.client[0] 	avg_time[0] 	0.007971065055
scalar abilene_cost_network.client[1] 	hdistance[1] 	1.8916339541747
scalar abilene_cost_network.client[1] 	downloads[1] 	179595
scalar abilene_cost_network.client[1] 	avg_time[1] 	0.008539610847
scalar abilene_cost_network.client[9] 	hdistance[9] 	1.8657719612047
scalar abilene_cost_network.client[9] 	downloads[9] 	180022
scalar abilene_cost_network.client[9] 	avg_time[9] 	0.008466501926
