version 2
run General-2-20150717-20:43:58-11023
attr C 116667
attr D lce
attr F spr
attr R lru
attr a 1
attr brates 1
attr configname General
attr ctlg 1e6
attr datetime 20150717-20:43:58
attr experiment General
attr inifile omnetpp.ini
attr iterationvars "$net=abilene_nodelay, $rep=0, $lambda=100, $a=1, $ctlg=1e6, $brates=1, $F=spr, $ttl=1000, $D=lce, $R=lru, $C=116667, $window=60, $variance=0.05, $mytime=9000"
attr iterationvars2 "$net=abilene_nodelay, $rep=0, $lambda=100, $a=1, $ctlg=1e6, $brates=1, $F=spr, $ttl=1000, $D=lce, $R=lru, $C=116667, $window=60, $variance=0.05, $mytime=9000, $repetition=0"
attr lambda 100
attr measurement "$net=abilene_nodelay, $rep=0, $lambda=100, $a=1, $ctlg=1e6, $brates=1, $F=spr, $ttl=1000, $D=lce, $R=lru, $C=116667, $window=60, $variance=0.05, $mytime=9000"
attr mytime 9000
attr net abilene_nodelay
attr network networks.${net=abilene_nodelay}_network
attr processid 11023
attr rep 0
attr repetition 0
attr replication #0
attr resultdir results
attr runnumber 2
attr seedset 0
attr ttl 1000
attr variance 0.05
attr window 60

scalar . 	C 	116667
scalar . 	a 	1
scalar . 	brates 	1
scalar . 	ctlg 	1e6
scalar . 	lambda 	100
scalar . 	mytime 	9000
scalar . 	rep 	0
scalar . 	ttl 	1000
scalar . 	variance 	0.05
scalar . 	window 	60
scalar abilene_nodelay_network.content_distribution 	repo-0 	5
scalar abilene_nodelay_network.content_distribution 	repo-1 	8
scalar abilene_nodelay_network.content_distribution 	repo-2 	9
scalar abilene_nodelay_network.content_distribution 	repo-3 	0
scalar abilene_nodelay_network.content_distribution 	repo-4 	1
scalar abilene_nodelay_network.content_distribution 	repo-5 	7
scalar abilene_nodelay_network.content_distribution 	repo-6 	6
scalar abilene_nodelay_network.content_distribution 	repo-7 	2
scalar abilene_nodelay_network.content_distribution 	repo-8 	4
scalar abilene_nodelay_network.content_distribution 	repo-9 	10
scalar abilene_nodelay_network.content_distribution 	repo-10 	3
scalar abilene_nodelay_network.content_distribution 	client-0 	10
scalar abilene_nodelay_network.content_distribution 	client-1 	9
scalar abilene_nodelay_network.content_distribution 	client-2 	8
scalar abilene_nodelay_network.content_distribution 	client-3 	7
scalar abilene_nodelay_network.content_distribution 	client-4 	3
scalar abilene_nodelay_network.content_distribution 	client-5 	6
scalar abilene_nodelay_network.content_distribution 	client-6 	5
scalar abilene_nodelay_network.content_distribution 	client-7 	1
scalar abilene_nodelay_network.content_distribution 	client-8 	4
scalar abilene_nodelay_network.content_distribution 	client-9 	0
scalar abilene_nodelay_network.content_distribution 	client-10 	2
scalar abilene_nodelay_network.content_distribution 	repo-0_card 	90891
scalar abilene_nodelay_network.content_distribution 	repo-0_price 	0
scalar abilene_nodelay_network.content_distribution 	repo-1_card 	90362
scalar abilene_nodelay_network.content_distribution 	repo-1_price 	0
scalar abilene_nodelay_network.content_distribution 	repo-2_card 	90927
scalar abilene_nodelay_network.content_distribution 	repo-2_price 	0
scalar abilene_nodelay_network.content_distribution 	repo-3_card 	91098
scalar abilene_nodelay_network.content_distribution 	repo-3_price 	0
scalar abilene_nodelay_network.content_distribution 	repo-4_card 	91231
scalar abilene_nodelay_network.content_distribution 	repo-4_price 	0
scalar abilene_nodelay_network.content_distribution 	repo-5_card 	90932
scalar abilene_nodelay_network.content_distribution 	repo-5_price 	0
scalar abilene_nodelay_network.content_distribution 	repo-6_card 	90752
scalar abilene_nodelay_network.content_distribution 	repo-6_price 	0
scalar abilene_nodelay_network.content_distribution 	repo-7_card 	90980
scalar abilene_nodelay_network.content_distribution 	repo-7_price 	0
scalar abilene_nodelay_network.content_distribution 	repo-8_card 	90629
scalar abilene_nodelay_network.content_distribution 	repo-8_price 	0
scalar abilene_nodelay_network.content_distribution 	repo-9_card 	91219
scalar abilene_nodelay_network.content_distribution 	repo-9_price 	0
scalar abilene_nodelay_network.content_distribution 	repo-10_card 	90979
scalar abilene_nodelay_network.content_distribution 	repo-10_price 	0
scalar abilene_nodelay_network.statistics 	p_hit 	0.36191431695983
scalar abilene_nodelay_network.statistics 	interests 	101666.45454545
scalar abilene_nodelay_network.statistics 	data 	43170.636363636
scalar abilene_nodelay_network.statistics 	hdistance 	1.109307523626
scalar abilene_nodelay_network.statistics 	avg_time 	0
scalar abilene_nodelay_network.statistics 	downloads 	643453
scalar abilene_nodelay_network.statistics 	total_cost 	0
scalar abilene_nodelay_network.statistics 	total_replicas 	1000000
scalar abilene_nodelay_network.statistics 	"representations_downloaded 1:" 	0
scalar abilene_nodelay_network.statistics 	"slots_per_representation 100:" 	0
scalar abilene_nodelay_network.statistics 	inner_hit 	0.62901253082976
scalar abilene_nodelay_network.statistics 	interests_sent 	643454
scalar abilene_nodelay_network.statistics 	execution_time 	258346
scalar abilene_nodelay_network.node[0].core_layer 	interests[0] 	73746
scalar abilene_nodelay_network.node[0].core_layer 	repo_load[0] 	19867
scalar abilene_nodelay_network.node[0].core_layer 	data[0] 	21760
scalar abilene_nodelay_network.node[0].core_layer 	slots_sent[face$o[1]->client[0]] 	5824900
scalar abilene_nodelay_network.node[0].core_layer 	slots_sent[face$o[2]->node[1]] 	1160100
scalar abilene_nodelay_network.node[0].core_layer 	slots_sent[face$o[3]->node[10]] 	389600
scalar abilene_nodelay_network.node[0].content_store 	p_hit[0] 	0.43553548667046
scalar abilene_nodelay_network.node[0].content_store 	hits[0] 	32119
scalar abilene_nodelay_network.node[0].content_store 	misses[0] 	41627
scalar abilene_nodelay_network.node[0].content_store 	decision_yes[0] 	21760
scalar abilene_nodelay_network.node[0].content_store 	decision_no[0] 	19867
scalar abilene_nodelay_network.node[0].content_store 	decision_ratio[0] 	0.52273764623922
scalar abilene_nodelay_network.node[1].core_layer 	interests[1] 	116567
scalar abilene_nodelay_network.node[1].core_layer 	repo_load[1] 	22592
scalar abilene_nodelay_network.node[1].core_layer 	data[1] 	55084
scalar abilene_nodelay_network.node[1].core_layer 	slots_sent[face$o[1]->client[1]] 	5870900
scalar abilene_nodelay_network.node[1].core_layer 	slots_sent[face$o[2]->node[0]] 	1742000
scalar abilene_nodelay_network.node[1].core_layer 	slots_sent[face$o[3]->node[10]] 	1279800
scalar abilene_nodelay_network.node[1].core_layer 	slots_sent[face$o[4]->node[2]] 	2764000
scalar abilene_nodelay_network.node[1].content_store 	p_hit[1] 	0.33363644942394
scalar abilene_nodelay_network.node[1].content_store 	hits[1] 	38891
scalar abilene_nodelay_network.node[1].content_store 	misses[1] 	77676
scalar abilene_nodelay_network.node[1].content_store 	decision_yes[1] 	55084
scalar abilene_nodelay_network.node[1].content_store 	decision_no[1] 	22592
scalar abilene_nodelay_network.node[1].content_store 	decision_ratio[1] 	0.70915083165971
scalar abilene_nodelay_network.node[2].core_layer 	interests[2] 	144979
scalar abilene_nodelay_network.node[2].core_layer 	repo_load[2] 	24137
scalar abilene_nodelay_network.node[2].core_layer 	data[2] 	76979
scalar abilene_nodelay_network.node[2].core_layer 	slots_sent[face$o[1]->client[2]] 	5855600
scalar abilene_nodelay_network.node[2].core_layer 	slots_sent[face$o[2]->node[1]] 	3309600
scalar abilene_nodelay_network.node[2].core_layer 	slots_sent[face$o[3]->node[3]] 	3717400
scalar abilene_nodelay_network.node[2].core_layer 	slots_sent[face$o[4]->node[8]] 	1615300
scalar abilene_nodelay_network.node[2].content_store 	p_hit[2] 	0.30254726546603
scalar abilene_nodelay_network.node[2].content_store 	hits[2] 	43863
scalar abilene_nodelay_network.node[2].content_store 	misses[2] 	101116
scalar abilene_nodelay_network.node[2].content_store 	decision_yes[2] 	76979
scalar abilene_nodelay_network.node[2].content_store 	decision_no[2] 	24137
scalar abilene_nodelay_network.node[2].content_store 	decision_ratio[2] 	0.76129395941295
scalar abilene_nodelay_network.node[3].core_layer 	interests[3] 	138798
scalar abilene_nodelay_network.node[3].core_layer 	repo_load[3] 	21755
scalar abilene_nodelay_network.node[3].core_layer 	data[3] 	71507
scalar abilene_nodelay_network.node[3].core_layer 	slots_sent[face$o[1]->client[3]] 	5882700
scalar abilene_nodelay_network.node[3].core_layer 	slots_sent[face$o[2]->node[2]] 	3607600
scalar abilene_nodelay_network.node[3].core_layer 	slots_sent[face$o[3]->node[4]] 	2621800
scalar abilene_nodelay_network.node[3].core_layer 	slots_sent[face$o[4]->node[7]] 	1767700
scalar abilene_nodelay_network.node[3].content_store 	p_hit[3] 	0.32807389155463
scalar abilene_nodelay_network.node[3].content_store 	hits[3] 	45536
scalar abilene_nodelay_network.node[3].content_store 	misses[3] 	93262
scalar abilene_nodelay_network.node[3].content_store 	decision_yes[3] 	71507
scalar abilene_nodelay_network.node[3].content_store 	decision_no[3] 	21755
scalar abilene_nodelay_network.node[3].content_store 	decision_ratio[3] 	0.76673243121529
scalar abilene_nodelay_network.node[4].core_layer 	interests[4] 	92980
scalar abilene_nodelay_network.node[4].core_layer 	repo_load[4] 	19950
scalar abilene_nodelay_network.node[4].core_layer 	data[4] 	37666
scalar abilene_nodelay_network.node[4].core_layer 	slots_sent[face$o[1]->client[4]] 	5830100
scalar abilene_nodelay_network.node[4].core_layer 	slots_sent[face$o[2]->node[3]] 	1953800
scalar abilene_nodelay_network.node[4].core_layer 	slots_sent[face$o[3]->node[5]] 	1514100
scalar abilene_nodelay_network.node[4].content_store 	p_hit[4] 	0.38033985803399
scalar abilene_nodelay_network.node[4].content_store 	hits[4] 	35364
scalar abilene_nodelay_network.node[4].content_store 	misses[4] 	57616
scalar abilene_nodelay_network.node[4].content_store 	decision_yes[4] 	37666
scalar abilene_nodelay_network.node[4].content_store 	decision_no[4] 	19950
scalar abilene_nodelay_network.node[4].content_store 	decision_ratio[4] 	0.65374201610664
scalar abilene_nodelay_network.node[5].core_layer 	interests[5] 	78939
scalar abilene_nodelay_network.node[5].core_layer 	repo_load[5] 	24341
scalar abilene_nodelay_network.node[5].core_layer 	data[5] 	25563
scalar abilene_nodelay_network.node[5].core_layer 	slots_sent[face$o[1]->client[5]] 	5854000
scalar abilene_nodelay_network.node[5].core_layer 	slots_sent[face$o[2]->node[4]] 	1144800
scalar abilene_nodelay_network.node[5].core_layer 	slots_sent[face$o[3]->node[6]] 	895000
scalar abilene_nodelay_network.node[5].content_store 	p_hit[5] 	0.36780298711663
scalar abilene_nodelay_network.node[5].content_store 	hits[5] 	29034
scalar abilene_nodelay_network.node[5].content_store 	misses[5] 	49905
scalar abilene_nodelay_network.node[5].content_store 	decision_yes[5] 	25563
scalar abilene_nodelay_network.node[5].content_store 	decision_no[5] 	24341
scalar abilene_nodelay_network.node[5].content_store 	decision_ratio[5] 	0.51224350753447
scalar abilene_nodelay_network.node[6].core_layer 	interests[6] 	85571
scalar abilene_nodelay_network.node[6].core_layer 	repo_load[6] 	19760
scalar abilene_nodelay_network.node[6].core_layer 	data[6] 	31419
scalar abilene_nodelay_network.node[6].core_layer 	slots_sent[face$o[1]->client[6]] 	5850300
scalar abilene_nodelay_network.node[6].core_layer 	slots_sent[face$o[2]->node[5]] 	1042200
scalar abilene_nodelay_network.node[6].core_layer 	slots_sent[face$o[3]->node[7]] 	1664600
scalar abilene_nodelay_network.node[6].content_store 	p_hit[6] 	0.40191186266375
scalar abilene_nodelay_network.node[6].content_store 	hits[6] 	34392
scalar abilene_nodelay_network.node[6].content_store 	misses[6] 	51179
scalar abilene_nodelay_network.node[6].content_store 	decision_yes[6] 	31419
scalar abilene_nodelay_network.node[6].content_store 	decision_no[6] 	19760
scalar abilene_nodelay_network.node[6].content_store 	decision_ratio[6] 	0.61390414037007
scalar abilene_nodelay_network.node[7].core_layer 	interests[7] 	110268
scalar abilene_nodelay_network.node[7].core_layer 	repo_load[7] 	21429
scalar abilene_nodelay_network.node[7].core_layer 	data[7] 	48789
scalar abilene_nodelay_network.node[7].core_layer 	slots_sent[face$o[1]->client[7]] 	5848100
scalar abilene_nodelay_network.node[7].core_layer 	slots_sent[face$o[2]->node[3]] 	1479500
scalar abilene_nodelay_network.node[7].core_layer 	slots_sent[face$o[3]->node[6]] 	2246900
scalar abilene_nodelay_network.node[7].core_layer 	slots_sent[face$o[4]->node[8]] 	1452300
scalar abilene_nodelay_network.node[7].content_store 	p_hit[7] 	0.3632060071825
scalar abilene_nodelay_network.node[7].content_store 	hits[7] 	40050
scalar abilene_nodelay_network.node[7].content_store 	misses[7] 	70218
scalar abilene_nodelay_network.node[7].content_store 	decision_yes[7] 	48789
scalar abilene_nodelay_network.node[7].content_store 	decision_no[7] 	21429
scalar abilene_nodelay_network.node[7].content_store 	decision_ratio[7] 	0.6948218405537
scalar abilene_nodelay_network.node[8].core_layer 	interests[8] 	106705
scalar abilene_nodelay_network.node[8].core_layer 	repo_load[8] 	20849
scalar abilene_nodelay_network.node[8].core_layer 	data[8] 	46129
scalar abilene_nodelay_network.node[8].core_layer 	slots_sent[face$o[1]->client[8]] 	5864600
scalar abilene_nodelay_network.node[8].core_layer 	slots_sent[face$o[2]->node[2]] 	1326300
scalar abilene_nodelay_network.node[8].core_layer 	slots_sent[face$o[3]->node[7]] 	1446600
scalar abilene_nodelay_network.node[8].core_layer 	slots_sent[face$o[4]->node[9]] 	2033000
scalar abilene_nodelay_network.node[8].content_store 	p_hit[8] 	0.37230682723396
scalar abilene_nodelay_network.node[8].content_store 	hits[8] 	39727
scalar abilene_nodelay_network.node[8].content_store 	misses[8] 	66978
scalar abilene_nodelay_network.node[8].content_store 	decision_yes[8] 	46129
scalar abilene_nodelay_network.node[8].content_store 	decision_no[8] 	20849
scalar abilene_nodelay_network.node[8].content_store 	decision_ratio[8] 	0.6887186837469
scalar abilene_nodelay_network.node[9].core_layer 	interests[9] 	85496
scalar abilene_nodelay_network.node[9].core_layer 	repo_load[9] 	20663
scalar abilene_nodelay_network.node[9].core_layer 	data[9] 	31503
scalar abilene_nodelay_network.node[9].core_layer 	slots_sent[face$o[1]->client[9]] 	5825900
scalar abilene_nodelay_network.node[9].core_layer 	slots_sent[face$o[2]->node[10]] 	1178400
scalar abilene_nodelay_network.node[9].core_layer 	slots_sent[face$o[3]->node[8]] 	1545300
scalar abilene_nodelay_network.node[9].content_store 	p_hit[9] 	0.38984279966314
scalar abilene_nodelay_network.node[9].content_store 	hits[9] 	33330
scalar abilene_nodelay_network.node[9].content_store 	misses[9] 	52166
scalar abilene_nodelay_network.node[9].content_store 	decision_yes[9] 	31503
scalar abilene_nodelay_network.node[9].content_store 	decision_no[9] 	20663
scalar abilene_nodelay_network.node[9].content_store 	decision_ratio[9] 	0.60389909136219
scalar abilene_nodelay_network.node[10].core_layer 	interests[10] 	84282
scalar abilene_nodelay_network.node[10].core_layer 	repo_load[10] 	23370
scalar abilene_nodelay_network.node[10].core_layer 	data[10] 	28478
scalar abilene_nodelay_network.node[10].core_layer 	slots_sent[face$o[1]->client[10]] 	5838200
scalar abilene_nodelay_network.node[10].core_layer 	slots_sent[face$o[2]->node[0]] 	434000
scalar abilene_nodelay_network.node[10].core_layer 	slots_sent[face$o[3]->node[1]] 	1038700
scalar abilene_nodelay_network.node[10].core_layer 	slots_sent[face$o[4]->node[9]] 	1117300
scalar abilene_nodelay_network.node[10].content_store 	p_hit[10] 	0.38482712797513
scalar abilene_nodelay_network.node[10].content_store 	hits[10] 	32434
scalar abilene_nodelay_network.node[10].content_store 	misses[10] 	51848
scalar abilene_nodelay_network.node[10].content_store 	decision_yes[10] 	28478
scalar abilene_nodelay_network.node[10].content_store 	decision_no[10] 	23370
scalar abilene_nodelay_network.node[10].content_store 	decision_ratio[10] 	0.54925937355346
scalar abilene_nodelay_network.client[0] 	hdistance[0].real 	1.3177393603324
scalar abilene_nodelay_network.client[0] 	downloads[0].real 	58249
scalar abilene_nodelay_network.client[0] 	avg_time[0].real 	0
scalar abilene_nodelay_network.client[0] 	interests_sent[0].real 	58249
scalar abilene_nodelay_network.client[1] 	hdistance[1].real 	1.0473692278867
scalar abilene_nodelay_network.client[1] 	downloads[1].real 	58709
scalar abilene_nodelay_network.client[1] 	avg_time[1].real 	0
scalar abilene_nodelay_network.client[1] 	interests_sent[1].real 	58709
scalar abilene_nodelay_network.client[2] 	hdistance[2].real 	0.89311086822871
scalar abilene_nodelay_network.client[2] 	downloads[2].real 	58556
scalar abilene_nodelay_network.client[2] 	avg_time[2].real 	0
scalar abilene_nodelay_network.client[2] 	interests_sent[2].real 	58556
scalar abilene_nodelay_network.client[3] 	hdistance[3].real 	0.88744964047122
scalar abilene_nodelay_network.client[3] 	downloads[3].real 	58827
scalar abilene_nodelay_network.client[3] 	avg_time[3].real 	0
scalar abilene_nodelay_network.client[3] 	interests_sent[3].real 	58827
scalar abilene_nodelay_network.client[4] 	hdistance[4].real 	1.1504090838922
scalar abilene_nodelay_network.client[4] 	downloads[4].real 	58301
scalar abilene_nodelay_network.client[4] 	avg_time[4].real 	0
scalar abilene_nodelay_network.client[4] 	interests_sent[4].real 	58301
scalar abilene_nodelay_network.client[5] 	hdistance[5].real 	1.4105568841818
scalar abilene_nodelay_network.client[5] 	downloads[5].real 	58540
scalar abilene_nodelay_network.client[5] 	avg_time[5].real 	0
scalar abilene_nodelay_network.client[5] 	interests_sent[5].real 	58541
scalar abilene_nodelay_network.client[6] 	hdistance[6].real 	1.2194075517495
scalar abilene_nodelay_network.client[6] 	downloads[6].real 	58503
scalar abilene_nodelay_network.client[6] 	avg_time[6].real 	0
scalar abilene_nodelay_network.client[6] 	interests_sent[6].real 	58503
scalar abilene_nodelay_network.client[7] 	hdistance[7].real 	0.95576341033839
scalar abilene_nodelay_network.client[7] 	downloads[7].real 	58481
scalar abilene_nodelay_network.client[7] 	avg_time[7].real 	0
scalar abilene_nodelay_network.client[7] 	interests_sent[7].real 	58481
scalar abilene_nodelay_network.client[8] 	hdistance[8].real 	0.92778706135116
scalar abilene_nodelay_network.client[8] 	downloads[8].real 	58646
scalar abilene_nodelay_network.client[8] 	avg_time[8].real 	0
scalar abilene_nodelay_network.client[8] 	interests_sent[8].real 	58646
scalar abilene_nodelay_network.client[9] 	hdistance[9].real 	1.1694845431607
scalar abilene_nodelay_network.client[9] 	downloads[9].real 	58259
scalar abilene_nodelay_network.client[9] 	avg_time[9].real 	0
scalar abilene_nodelay_network.client[9] 	interests_sent[9].real 	58259
scalar abilene_nodelay_network.client[10] 	hdistance[10].real 	1.223305128293
scalar abilene_nodelay_network.client[10] 	downloads[10].real 	58382
scalar abilene_nodelay_network.client[10] 	avg_time[10].real 	0
scalar abilene_nodelay_network.client[10] 	interests_sent[10].real 	58382
