version 2
run General-3-20150615-16:01:41-29997
attr D lce
attr F spr
attr R two
attr a 1
attr configname General
attr datetime 20150615-16:01:41
attr experiment General
attr inifile omnetpp.ini
attr iterationvars "$net=abilene, $rep=0, $a=1, $F=spr, $ttl=1000, $D=lce, $R=two, $window=60, $variance=0.05, $mytime=1800"
attr iterationvars2 "$net=abilene, $rep=0, $a=1, $F=spr, $ttl=1000, $D=lce, $R=two, $window=60, $variance=0.05, $mytime=1800, $repetition=0"
attr measurement "$net=abilene, $rep=0, $a=1, $F=spr, $ttl=1000, $D=lce, $R=two, $window=60, $variance=0.05, $mytime=1800"
attr mytime 1800
attr net abilene
attr network networks.${net=abilene}_network
attr processid 29997
attr rep 0
attr repetition 0
attr replication #0
attr resultdir results
attr runnumber 3
attr seedset 0
attr ttl 1000
attr variance 0.05
attr window 60

scalar . 	a 	1
scalar . 	mytime 	1800
scalar . 	rep 	0
scalar . 	ttl 	1000
scalar . 	variance 	0.05
scalar . 	window 	60
scalar abilene_network.content_distribution 	repo-0 	5
scalar abilene_network.content_distribution 	client-0 	8
scalar abilene_network.content_distribution 	client-1 	9
scalar abilene_network.content_distribution 	client-2 	5
scalar abilene_network.content_distribution 	client-3 	0
scalar abilene_network.content_distribution 	client-4 	1
scalar abilene_network.content_distribution 	client-5 	7
scalar abilene_network.content_distribution 	client-6 	6
scalar abilene_network.content_distribution 	client-7 	2
scalar abilene_network.content_distribution 	client-8 	4
scalar abilene_network.content_distribution 	client-9 	10
scalar abilene_network.content_distribution 	client-10 	3
scalar abilene_network.content_distribution 	repo-0_card 	1000
scalar abilene_network.content_distribution 	repo-0_price 	0
scalar abilene_network.statistics 	stabilization_time 	60.2
scalar abilene_network.statistics 	p_hit 	0.057870725032115
scalar abilene_network.statistics 	interests 	566647
scalar abilene_network.statistics 	data 	386537.09090909
scalar abilene_network.statistics 	hdistance 	3.1069422642148
scalar abilene_network.statistics 	avg_time 	0.012626483305
scalar abilene_network.statistics 	downloads 	1936902
scalar abilene_network.statistics 	total_cost 	0
scalar abilene_network.statistics 	total_replicas 	1000
scalar abilene_network.statistics 	inner_hit 	0.22345167695629
scalar abilene_network.node[0].core_layer 	interests[0] 	180271
scalar abilene_network.node[0].core_layer 	data[0] 	152646
scalar abilene_network.node[0].core_layer 	repo_int[0] 	1504098
scalar abilene_network.node[0].content_store 	p_hit[0] 	0.11494915987596
scalar abilene_network.node[0].content_store 	hits[0] 	20722
scalar abilene_network.node[0].content_store 	misses[0] 	159549
scalar abilene_network.node[0].content_store 	decision_yes[0] 	152646
scalar abilene_network.node[0].content_store 	decision_no[0] 	0
scalar abilene_network.node[0].content_store 	decision_ratio[0] 	1
scalar abilene_network.node[1].core_layer 	interests[1] 	485186
scalar abilene_network.node[1].core_layer 	data[1] 	426301
scalar abilene_network.node[1].content_store 	p_hit[1] 	0.07338422790435
scalar abilene_network.node[1].content_store 	hits[1] 	35605
scalar abilene_network.node[1].content_store 	misses[1] 	449581
scalar abilene_network.node[1].content_store 	decision_yes[1] 	426301
scalar abilene_network.node[1].content_store 	decision_no[1] 	0
scalar abilene_network.node[1].content_store 	decision_ratio[1] 	1
scalar abilene_network.node[2].core_layer 	interests[2] 	606653
scalar abilene_network.node[2].core_layer 	data[2] 	557070
scalar abilene_network.node[2].content_store 	p_hit[2] 	0.05280448625491
scalar abilene_network.node[2].content_store 	hits[2] 	32034
scalar abilene_network.node[2].content_store 	misses[2] 	574619
scalar abilene_network.node[2].content_store 	decision_yes[2] 	557070
scalar abilene_network.node[2].content_store 	decision_no[2] 	0
scalar abilene_network.node[2].content_store 	decision_ratio[2] 	1
scalar abilene_network.node[3].core_layer 	interests[3] 	737433
scalar abilene_network.node[3].core_layer 	data[3] 	689695
scalar abilene_network.node[3].content_store 	p_hit[3] 	0.04432945094673
scalar abilene_network.node[3].content_store 	hits[3] 	32690
scalar abilene_network.node[3].content_store 	misses[3] 	704743
scalar abilene_network.node[3].content_store 	decision_yes[3] 	689695
scalar abilene_network.node[3].content_store 	decision_no[3] 	0
scalar abilene_network.node[3].content_store 	decision_ratio[3] 	1
scalar abilene_network.node[4].core_layer 	interests[4] 	870435
scalar abilene_network.node[4].core_layer 	data[4] 	819030
scalar abilene_network.node[4].content_store 	p_hit[4] 	0.040230459482902
scalar abilene_network.node[4].content_store 	hits[4] 	35018
scalar abilene_network.node[4].content_store 	misses[4] 	835417
scalar abilene_network.node[4].content_store 	decision_yes[4] 	819030
scalar abilene_network.node[4].content_store 	decision_no[4] 	0
scalar abilene_network.node[4].content_store 	decision_ratio[4] 	1
scalar abilene_network.node[5].core_layer 	interests[5] 	1573982
scalar abilene_network.node[5].core_layer 	repo_load[5] 	1504098
scalar abilene_network.node[5].core_layer 	data[5] 	0
scalar abilene_network.node[5].content_store 	p_hit[5] 	0.04439949122671
scalar abilene_network.node[5].content_store 	hits[5] 	69884
scalar abilene_network.node[5].content_store 	misses[5] 	1504098
scalar abilene_network.node[5].content_store 	decision_yes[5] 	1504098
scalar abilene_network.node[5].content_store 	decision_no[5] 	0
scalar abilene_network.node[5].content_store 	decision_ratio[5] 	1
scalar abilene_network.node[6].core_layer 	interests[6] 	613443
scalar abilene_network.node[6].core_layer 	data[6] 	575565
scalar abilene_network.node[6].content_store 	p_hit[6] 	0.05591065510569
scalar abilene_network.node[6].content_store 	hits[6] 	34298
scalar abilene_network.node[6].content_store 	misses[6] 	579145
scalar abilene_network.node[6].content_store 	decision_yes[6] 	575565
scalar abilene_network.node[6].content_store 	decision_no[6] 	0
scalar abilene_network.node[6].content_store 	decision_ratio[6] 	1
scalar abilene_network.node[7].core_layer 	interests[7] 	473477
scalar abilene_network.node[7].core_layer 	data[7] 	433235
scalar abilene_network.node[7].content_store 	p_hit[7] 	0.065979973684044
scalar abilene_network.node[7].content_store 	hits[7] 	31240
scalar abilene_network.node[7].content_store 	misses[7] 	442237
scalar abilene_network.node[7].content_store 	decision_yes[7] 	433235
scalar abilene_network.node[7].content_store 	decision_no[7] 	0
scalar abilene_network.node[7].content_store 	decision_ratio[7] 	1
scalar abilene_network.node[8].core_layer 	interests[8] 	332032
scalar abilene_network.node[8].core_layer 	data[8] 	293939
scalar abilene_network.node[8].content_store 	p_hit[8] 	0.083510023130301
scalar abilene_network.node[8].content_store 	hits[8] 	27728
scalar abilene_network.node[8].content_store 	misses[8] 	304304
scalar abilene_network.node[8].content_store 	decision_yes[8] 	293939
scalar abilene_network.node[8].content_store 	decision_no[8] 	0
scalar abilene_network.node[8].content_store 	decision_ratio[8] 	1
scalar abilene_network.node[9].core_layer 	interests[9] 	180394
scalar abilene_network.node[9].core_layer 	data[9] 	152022
scalar abilene_network.node[9].content_store 	p_hit[9] 	0.11528653946362
scalar abilene_network.node[9].content_store 	hits[9] 	20797
scalar abilene_network.node[9].content_store 	misses[9] 	159597
scalar abilene_network.node[9].content_store 	decision_yes[9] 	152022
scalar abilene_network.node[9].content_store 	decision_no[9] 	0
scalar abilene_network.node[9].content_store 	decision_ratio[9] 	1
scalar abilene_network.node[10].core_layer 	interests[10] 	179811
scalar abilene_network.node[10].core_layer 	data[10] 	152405
scalar abilene_network.node[10].content_store 	p_hit[10] 	0.11511531552575
scalar abilene_network.node[10].content_store 	hits[10] 	20699
scalar abilene_network.node[10].content_store 	misses[10] 	159112
scalar abilene_network.node[10].content_store 	decision_yes[10] 	152405
scalar abilene_network.node[10].content_store 	decision_no[10] 	0
scalar abilene_network.node[10].content_store 	decision_ratio[10] 	1
scalar abilene_network.client[0] 	hdistance[0] 	4.8048947902727
scalar abilene_network.client[0] 	downloads[0] 	173368
scalar abilene_network.client[0] 	avg_time[0] 	0.024824136862
scalar abilene_network.client[1] 	hdistance[1] 	4.1864432954312
scalar abilene_network.client[1] 	downloads[1] 	174836
scalar abilene_network.client[1] 	avg_time[1] 	0.016466420399
scalar abilene_network.client[2] 	hdistance[2] 	3.4212299055881
scalar abilene_network.client[2] 	downloads[2] 	176355
scalar abilene_network.client[2] 	avg_time[2] 	0.011879422024
scalar abilene_network.client[3] 	hdistance[3] 	2.6100618296388
scalar abilene_network.client[3] 	downloads[3] 	177423
scalar abilene_network.client[3] 	avg_time[3] 	0.007986827792
scalar abilene_network.client[4] 	hdistance[4] 	1.7766882755441
scalar abilene_network.client[4] 	downloads[4] 	177859
scalar abilene_network.client[4] 	avg_time[4] 	0.006764365424
scalar abilene_network.client[5] 	hdistance[5] 	0.90951305850545
scalar abilene_network.client[5] 	downloads[5] 	179385
scalar abilene_network.client[5] 	avg_time[5] 	0
scalar abilene_network.client[6] 	hdistance[6] 	1.7464886074821
scalar abilene_network.client[6] 	downloads[6] 	179416
scalar abilene_network.client[6] 	avg_time[6] 	0.001965459377
scalar abilene_network.client[7] 	hdistance[7] 	2.5591438588554
scalar abilene_network.client[7] 	downloads[7] 	176840
scalar abilene_network.client[7] 	avg_time[7] 	0.006972243758
scalar abilene_network.client[8] 	hdistance[8] 	3.3328489945697
scalar abilene_network.client[8] 	downloads[8] 	175497
scalar abilene_network.client[8] 	avg_time[8] 	0.013121239932
scalar abilene_network.client[9] 	hdistance[9] 	4.0255006683292
scalar abilene_network.client[9] 	downloads[9] 	172819
scalar abilene_network.client[9] 	avg_time[9] 	0.024883842758
scalar abilene_network.client[10] 	hdistance[10] 	4.8035516221462
scalar abilene_network.client[10] 	downloads[10] 	173104
scalar abilene_network.client[10] 	avg_time[10] 	0.02402735803
