version 2
run General-1954-20140508-18:34:03-23331
attr D costprobprodcorr0.01
attr F nrr
attr R lru
attr a 1.5
attr configname General
attr csize 1e3
attr ctlg 1e5
attr datetime 20140508-18:34:03
attr experiment General
attr inifile omnetpp.ini
attr iterationvars "$net=one_cache_scenario_3_links, $rep=18, $priceratiovalue=2, $weights=0.333_0.333_0.334, $a=1.5, $ctlg=1e5, $F=nrr, $ttl=1000, $D=costprobprodcorr0.01, $xi=0.75, $R=lru, $csize=1e3"
attr iterationvars2 "$net=one_cache_scenario_3_links, $rep=18, $priceratiovalue=2, $weights=0.333_0.333_0.334, $a=1.5, $ctlg=1e5, $F=nrr, $ttl=1000, $D=costprobprodcorr0.01, $xi=0.75, $R=lru, $csize=1e3, $repetition=0"
attr measurement "$net=one_cache_scenario_3_links, $rep=18, $priceratiovalue=2, $weights=0.333_0.333_0.334, $a=1.5, $ctlg=1e5, $F=nrr, $ttl=1000, $D=costprobprodcorr0.01, $xi=0.75, $R=lru, $csize=1e3"
attr net one_cache_scenario_3_links
attr network networks.${net=one_cache_scenario_3_links}_network
attr priceratiovalue 2
attr processid 23331
attr rep 18
attr repetition 0
attr replication #0
attr resultdir results
attr runnumber 1954
attr seedset 18
attr ttl 1000
attr weights 0.333_0.333_0.334
attr xi 0.75

scalar . 	a 	1.5
scalar . 	csize 	1e3
scalar . 	ctlg 	1e5
scalar . 	priceratiovalue 	2
scalar . 	rep 	18
scalar . 	ttl 	1000
scalar . 	xi 	0.75
scalar one_cache_scenario_3_links_network.content_distribution 	repo-0 	4
scalar one_cache_scenario_3_links_network.content_distribution 	repo-1 	5
scalar one_cache_scenario_3_links_network.content_distribution 	repo-2 	6
scalar one_cache_scenario_3_links_network.content_distribution 	client-0 	0
scalar one_cache_scenario_3_links_network.content_distribution 	repo-0_card 	33459
scalar one_cache_scenario_3_links_network.content_distribution 	repo-1_card 	33216
scalar one_cache_scenario_3_links_network.content_distribution 	repo-2_card 	33325
scalar one_cache_scenario_3_links_network.statistics 	p_hit 	0.21885656492915
scalar one_cache_scenario_3_links_network.statistics 	interests 	53957.714285714
scalar one_cache_scenario_3_links_network.statistics 	data 	28099.142857143
scalar one_cache_scenario_3_links_network.statistics 	hdistance 	1.0866471465665
scalar one_cache_scenario_3_links_network.statistics 	avg_time 	0
scalar one_cache_scenario_3_links_network.statistics 	downloads 	181010
scalar one_cache_scenario_3_links_network.statistics 	total_cost 	4404
scalar one_cache_scenario_3_links_network.statistics 	total_replicas 	100000
scalar one_cache_scenario_3_links_network.statistics 	interests_sent 	181010
scalar one_cache_scenario_3_links_network.node[0].core_layer 	interests[0] 	181010
scalar one_cache_scenario_3_links_network.node[0].core_layer 	data[0] 	98347
scalar one_cache_scenario_3_links_network.node[0].core_layer 	repo_int[0] 	98347
scalar one_cache_scenario_3_links_network.node[0].content_store 	p_hit[0] 	0.45667642671676
scalar one_cache_scenario_3_links_network.node[0].content_store 	hits[0] 	82663
scalar one_cache_scenario_3_links_network.node[0].content_store 	misses[0] 	98347
scalar one_cache_scenario_3_links_network.node[0].content_store 	decision_yes[0] 	32
scalar one_cache_scenario_3_links_network.node[0].content_store 	decision_no[0] 	98315
scalar one_cache_scenario_3_links_network.node[0].content_store 	decision_ratio[0] 	0.00032537850671602
scalar one_cache_scenario_3_links_network.node[0].content_store 	correction_factor[0] 	0.011176695895698
scalar one_cache_scenario_3_links_network.node[0].content_store 	xi[0] 	0.75
scalar one_cache_scenario_3_links_network.node[1].core_layer 	interests[1] 	95307
scalar one_cache_scenario_3_links_network.node[1].core_layer 	data[1] 	95307
scalar one_cache_scenario_3_links_network.node[1].content_store 	p_hit[1] 	0
scalar one_cache_scenario_3_links_network.node[1].content_store 	hits[1] 	0
scalar one_cache_scenario_3_links_network.node[1].content_store 	misses[1] 	95307
scalar one_cache_scenario_3_links_network.node[1].content_store 	decision_yes[1] 	0
scalar one_cache_scenario_3_links_network.node[1].content_store 	decision_no[1] 	95307
scalar one_cache_scenario_3_links_network.node[1].content_store 	decision_ratio[1] 	0
scalar one_cache_scenario_3_links_network.node[2].core_layer 	interests[2] 	1676
scalar one_cache_scenario_3_links_network.node[2].core_layer 	data[2] 	1676
scalar one_cache_scenario_3_links_network.node[2].content_store 	p_hit[2] 	0
scalar one_cache_scenario_3_links_network.node[2].content_store 	hits[2] 	0
scalar one_cache_scenario_3_links_network.node[2].content_store 	misses[2] 	1676
scalar one_cache_scenario_3_links_network.node[2].content_store 	decision_yes[2] 	0
scalar one_cache_scenario_3_links_network.node[2].content_store 	decision_no[2] 	1676
scalar one_cache_scenario_3_links_network.node[2].content_store 	decision_ratio[2] 	0
scalar one_cache_scenario_3_links_network.node[3].core_layer 	interests[3] 	1364
scalar one_cache_scenario_3_links_network.node[3].core_layer 	data[3] 	1364
scalar one_cache_scenario_3_links_network.node[3].content_store 	p_hit[3] 	0
scalar one_cache_scenario_3_links_network.node[3].content_store 	hits[3] 	0
scalar one_cache_scenario_3_links_network.node[3].content_store 	misses[3] 	1364
scalar one_cache_scenario_3_links_network.node[3].content_store 	decision_yes[3] 	0
scalar one_cache_scenario_3_links_network.node[3].content_store 	decision_no[3] 	1364
scalar one_cache_scenario_3_links_network.node[3].content_store 	decision_ratio[3] 	0
scalar one_cache_scenario_3_links_network.node[4].core_layer 	interests[4] 	95307
scalar one_cache_scenario_3_links_network.node[4].core_layer 	repo_load[4] 	95307
scalar one_cache_scenario_3_links_network.node[4].core_layer 	data[4] 	0
scalar one_cache_scenario_3_links_network.node[4].content_store 	p_hit[4] 	0
scalar one_cache_scenario_3_links_network.node[4].content_store 	hits[4] 	0
scalar one_cache_scenario_3_links_network.node[4].content_store 	misses[4] 	95307
scalar one_cache_scenario_3_links_network.node[4].content_store 	decision_yes[4] 	0
scalar one_cache_scenario_3_links_network.node[4].content_store 	decision_no[4] 	95307
scalar one_cache_scenario_3_links_network.node[4].content_store 	decision_ratio[4] 	0
scalar one_cache_scenario_3_links_network.node[5].core_layer 	interests[5] 	1676
scalar one_cache_scenario_3_links_network.node[5].core_layer 	repo_load[5] 	1676
scalar one_cache_scenario_3_links_network.node[5].core_layer 	data[5] 	0
scalar one_cache_scenario_3_links_network.node[5].content_store 	p_hit[5] 	0
scalar one_cache_scenario_3_links_network.node[5].content_store 	hits[5] 	0
scalar one_cache_scenario_3_links_network.node[5].content_store 	misses[5] 	1676
scalar one_cache_scenario_3_links_network.node[5].content_store 	decision_yes[5] 	0
scalar one_cache_scenario_3_links_network.node[5].content_store 	decision_no[5] 	1676
scalar one_cache_scenario_3_links_network.node[5].content_store 	decision_ratio[5] 	0
scalar one_cache_scenario_3_links_network.node[6].core_layer 	interests[6] 	1364
scalar one_cache_scenario_3_links_network.node[6].core_layer 	repo_load[6] 	1364
scalar one_cache_scenario_3_links_network.node[6].core_layer 	data[6] 	0
scalar one_cache_scenario_3_links_network.node[6].content_store 	p_hit[6] 	0
scalar one_cache_scenario_3_links_network.node[6].content_store 	hits[6] 	0
scalar one_cache_scenario_3_links_network.node[6].content_store 	misses[6] 	1364
scalar one_cache_scenario_3_links_network.node[6].content_store 	decision_yes[6] 	0
scalar one_cache_scenario_3_links_network.node[6].content_store 	decision_no[6] 	1364
scalar one_cache_scenario_3_links_network.node[6].content_store 	decision_ratio[6] 	0
scalar one_cache_scenario_3_links_network.client[0] 	hdistance[0] 	1.0866471465665
scalar one_cache_scenario_3_links_network.client[0] 	downloads[0] 	181010
scalar one_cache_scenario_3_links_network.client[0] 	avg_time[0] 	0
scalar one_cache_scenario_3_links_network.client[0] 	interests_sent[0] 	181010
