version 2
run General-6-20140627-14:59:19-14565
attr D fix0.01
attr F spr
attr R lru
attr a 1
attr configname General
attr csize 1e3
attr ctlg 1e5
attr datetime 20140627-14:59:19
attr experiment General
attr inifile omnetpp.ini
attr iterationvars "$net=abilene_cost, $rep=1, $priceratiovalue=10, $weights=0.333_0.333_0.334, $lambda=100, $a=1, $ctlg=1e5, $F=spr, $ttl=1000, $D=fix0.01, $xi=1, $R=lru, $csize=1e3, $pricebits=0, $window=600, $variance=0.005, $mytime=1800"
attr iterationvars2 "$net=abilene_cost, $rep=1, $priceratiovalue=10, $weights=0.333_0.333_0.334, $lambda=100, $a=1, $ctlg=1e5, $F=spr, $ttl=1000, $D=fix0.01, $xi=1, $R=lru, $csize=1e3, $pricebits=0, $window=600, $variance=0.005, $mytime=1800, $repetition=0"
attr lambda 100
attr measurement "$net=abilene_cost, $rep=1, $priceratiovalue=10, $weights=0.333_0.333_0.334, $lambda=100, $a=1, $ctlg=1e5, $F=spr, $ttl=1000, $D=fix0.01, $xi=1, $R=lru, $csize=1e3, $pricebits=0, $window=600, $variance=0.005, $mytime=1800"
attr mytime 1800
attr net abilene_cost
attr network "networks.${net=geant_cost, abilene_cost}_network"
attr pricebits 0
attr priceratiovalue 10
attr processid 14565
attr rep 1
attr repetition 0
attr replication #0
attr resultdir results
attr runnumber 6
attr seedset 1
attr ttl 1000
attr variance 0.005
attr weights 0.333_0.333_0.334
attr window 600
attr xi 1

scalar . 	a 	1
scalar . 	csize 	1e3
scalar . 	ctlg 	1e5
scalar . 	lambda 	100
scalar . 	mytime 	1800
scalar . 	pricebits 	0
scalar . 	priceratiovalue 	10
scalar . 	rep 	1
scalar . 	ttl 	1000
scalar . 	variance 	0.005
scalar . 	window 	600
scalar . 	xi 	1
scalar abilene_cost_network.content_distribution 	repo-0 	11
scalar abilene_cost_network.content_distribution 	repo-1 	12
scalar abilene_cost_network.content_distribution 	repo-2 	13
scalar abilene_cost_network.content_distribution 	client-0 	5
scalar abilene_cost_network.content_distribution 	client-1 	0
scalar abilene_cost_network.content_distribution 	client-2 	9
scalar abilene_cost_network.content_distribution 	repo-0_card 	33396
scalar abilene_cost_network.content_distribution 	repo-1_card 	33039
scalar abilene_cost_network.content_distribution 	repo-2_card 	33565
scalar abilene_cost_network.statistics 	repo_popularity[0] 	0.28686251265602
scalar abilene_cost_network.statistics 	repo_popularity[1] 	0.2886063426465
scalar abilene_cost_network.statistics 	repo_popularity[2] 	0.42453114469748
scalar abilene_cost_network.statistics 	stabilization_time 	1614.4
scalar abilene_cost_network.node[1].face$o[4].channel 	price[1] 	0
scalar abilene_cost_network.node[1].face$o[4].channel 	represented_price[1] 	0
scalar abilene_cost_network.node[7].face$o[4].channel 	price[7] 	0
scalar abilene_cost_network.node[7].face$o[4].channel 	represented_price[7] 	0
scalar abilene_cost_network.node[10].face$o[4].channel 	price[10] 	0
scalar abilene_cost_network.node[10].face$o[4].channel 	represented_price[10] 	0
scalar abilene_cost_network.node[11].face$o[1].channel 	price[11] 	0
scalar abilene_cost_network.node[11].face$o[1].channel 	represented_price[11] 	0
scalar abilene_cost_network.node[12].face$o[1].channel 	price[12] 	1
scalar abilene_cost_network.node[12].face$o[1].channel 	represented_price[12] 	1
scalar abilene_cost_network.node[13].face$o[1].channel 	price[13] 	10
scalar abilene_cost_network.node[13].face$o[1].channel 	represented_price[13] 	10
scalar abilene_cost_network.statistics 	p_hit 	0.17274007860931
scalar abilene_cost_network.statistics 	interests 	111200.92857143
scalar abilene_cost_network.statistics 	data 	72665
scalar abilene_cost_network.statistics 	hdistance 	2.3869659578039
scalar abilene_cost_network.statistics 	avg_time 	0.00902849448
scalar abilene_cost_network.statistics 	downloads 	539429
scalar abilene_cost_network.statistics 	total_cost 	1025261
scalar abilene_cost_network.statistics 	total_replicas 	100000
scalar abilene_cost_network.statistics 	inner_hit 	0.49853456154563
scalar abilene_cost_network.statistics 	interests_sent 	539507
scalar abilene_cost_network.node[0].core_layer 	interests[0] 	180482
scalar abilene_cost_network.node[0].core_layer 	data[0] 	109298
scalar abilene_cost_network.node[0].core_layer 	repo_int[0] 	270505
scalar abilene_cost_network.node[0].content_store 	p_hit[0] 	0.39429416783945
scalar abilene_cost_network.node[0].content_store 	hits[0] 	71163
scalar abilene_cost_network.node[0].content_store 	misses[0] 	109319
scalar abilene_cost_network.node[0].content_store 	decision_yes[0] 	1053
scalar abilene_cost_network.node[0].content_store 	decision_no[0] 	108245
scalar abilene_cost_network.node[0].content_store 	decision_ratio[0] 	0.009634211056012
scalar abilene_cost_network.node[1].core_layer 	interests[1] 	170115
scalar abilene_cost_network.node[1].core_layer 	data[1] 	160014
scalar abilene_cost_network.node[1].content_store 	p_hit[1] 	0.059383358316433
scalar abilene_cost_network.node[1].content_store 	hits[1] 	10102
scalar abilene_cost_network.node[1].content_store 	misses[1] 	160013
scalar abilene_cost_network.node[1].content_store 	decision_yes[1] 	1597
scalar abilene_cost_network.node[1].content_store 	decision_no[1] 	158417
scalar abilene_cost_network.node[1].content_store 	decision_ratio[1] 	0.0099803767170373
scalar abilene_cost_network.node[2].core_layer 	interests[2] 	99356
scalar abilene_cost_network.node[2].core_layer 	data[2] 	95612
scalar abilene_cost_network.node[2].content_store 	p_hit[2] 	0.037692741253674
scalar abilene_cost_network.node[2].content_store 	hits[2] 	3745
scalar abilene_cost_network.node[2].content_store 	misses[2] 	95611
scalar abilene_cost_network.node[2].content_store 	decision_yes[2] 	902
scalar abilene_cost_network.node[2].content_store 	decision_no[2] 	94710
scalar abilene_cost_network.node[2].content_store 	decision_ratio[2] 	0.0094339622641509
scalar abilene_cost_network.node[3].core_layer 	interests[3] 	99942
scalar abilene_cost_network.node[3].core_layer 	data[3] 	96023
scalar abilene_cost_network.node[3].content_store 	p_hit[3] 	0.039232754997899
scalar abilene_cost_network.node[3].content_store 	hits[3] 	3921
scalar abilene_cost_network.node[3].content_store 	misses[3] 	96021
scalar abilene_cost_network.node[3].content_store 	decision_yes[3] 	874
scalar abilene_cost_network.node[3].content_store 	decision_no[3] 	95149
scalar abilene_cost_network.node[3].content_store 	decision_ratio[3] 	0.009101985982525
scalar abilene_cost_network.node[4].core_layer 	interests[4] 	73543
scalar abilene_cost_network.node[4].core_layer 	data[4] 	67001
scalar abilene_cost_network.node[4].content_store 	p_hit[4] 	0.088981956134506
scalar abilene_cost_network.node[4].content_store 	hits[4] 	6544
scalar abilene_cost_network.node[4].content_store 	misses[4] 	66999
scalar abilene_cost_network.node[4].content_store 	decision_yes[4] 	723
scalar abilene_cost_network.node[4].content_store 	decision_no[4] 	66278
scalar abilene_cost_network.node[4].content_store 	decision_ratio[4] 	0.010790883718153
scalar abilene_cost_network.node[5].core_layer 	interests[5] 	179922
scalar abilene_cost_network.node[5].core_layer 	data[5] 	109213
scalar abilene_cost_network.node[5].content_store 	p_hit[5] 	0.39282022209624
scalar abilene_cost_network.node[5].content_store 	hits[5] 	70677
scalar abilene_cost_network.node[5].content_store 	misses[5] 	109245
scalar abilene_cost_network.node[5].content_store 	decision_yes[5] 	1147
scalar abilene_cost_network.node[5].content_store 	decision_no[5] 	108066
scalar abilene_cost_network.node[5].content_store 	decision_ratio[5] 	0.010502412716435
scalar abilene_cost_network.node[6].core_layer 	interests[6] 	35668
scalar abilene_cost_network.node[6].core_layer 	data[6] 	30025
scalar abilene_cost_network.node[6].content_store 	p_hit[6] 	0.15820903891443
scalar abilene_cost_network.node[6].content_store 	hits[6] 	5643
scalar abilene_cost_network.node[6].content_store 	misses[6] 	30025
scalar abilene_cost_network.node[6].content_store 	decision_yes[6] 	316
scalar abilene_cost_network.node[6].content_store 	decision_no[6] 	29709
scalar abilene_cost_network.node[6].content_store 	decision_ratio[6] 	0.01052456286428
scalar abilene_cost_network.node[7].core_layer 	interests[7] 	91763
scalar abilene_cost_network.node[7].core_layer 	data[7] 	83421
scalar abilene_cost_network.node[7].content_store 	p_hit[7] 	0.090908100214683
scalar abilene_cost_network.node[7].content_store 	hits[7] 	8342
scalar abilene_cost_network.node[7].content_store 	misses[7] 	83421
scalar abilene_cost_network.node[7].content_store 	decision_yes[7] 	874
scalar abilene_cost_network.node[7].content_store 	decision_no[7] 	82547
scalar abilene_cost_network.node[7].content_store 	decision_ratio[7] 	0.010476978218914
scalar abilene_cost_network.node[8].core_layer 	interests[8] 	35854
scalar abilene_cost_network.node[8].core_layer 	data[8] 	30197
scalar abilene_cost_network.node[8].content_store 	p_hit[8] 	0.1577787694539
scalar abilene_cost_network.node[8].content_store 	hits[8] 	5657
scalar abilene_cost_network.node[8].content_store 	misses[8] 	30197
scalar abilene_cost_network.node[8].content_store 	decision_yes[8] 	294
scalar abilene_cost_network.node[8].content_store 	decision_no[8] 	29903
scalar abilene_cost_network.node[8].content_store 	decision_ratio[8] 	0.0097360664966719
scalar abilene_cost_network.node[9].core_layer 	interests[9] 	179103
scalar abilene_cost_network.node[9].core_layer 	data[9] 	108512
scalar abilene_cost_network.node[9].content_store 	p_hit[9] 	0.39399675047319
scalar abilene_cost_network.node[9].content_store 	hits[9] 	70566
scalar abilene_cost_network.node[9].content_store 	misses[9] 	108537
scalar abilene_cost_network.node[9].content_store 	decision_yes[9] 	1079
scalar abilene_cost_network.node[9].content_store 	decision_no[9] 	107433
scalar abilene_cost_network.node[9].content_store 	decision_ratio[9] 	0.0099436007077558
scalar abilene_cost_network.node[10].core_layer 	interests[10] 	140560
scalar abilene_cost_network.node[10].core_layer 	data[10] 	127994
scalar abilene_cost_network.node[10].content_store 	p_hit[10] 	0.08938531587934
scalar abilene_cost_network.node[10].content_store 	hits[10] 	12564
scalar abilene_cost_network.node[10].content_store 	misses[10] 	127996
scalar abilene_cost_network.node[10].content_store 	decision_yes[10] 	1294
scalar abilene_cost_network.node[10].content_store 	decision_no[10] 	126700
scalar abilene_cost_network.node[10].content_store 	decision_ratio[10] 	0.010109848899167
scalar abilene_cost_network.node[11].core_layer 	interests[11] 	92900
scalar abilene_cost_network.node[11].core_layer 	repo_load[11] 	92900
scalar abilene_cost_network.node[11].core_layer 	data[11] 	0
scalar abilene_cost_network.node[11].content_store 	p_hit[11] 	0
scalar abilene_cost_network.node[11].content_store 	hits[11] 	0
scalar abilene_cost_network.node[11].content_store 	misses[11] 	92900
scalar abilene_cost_network.node[11].content_store 	decision_yes[11] 	0
scalar abilene_cost_network.node[11].content_store 	decision_no[11] 	92900
scalar abilene_cost_network.node[11].content_store 	decision_ratio[11] 	0
scalar abilene_cost_network.node[12].core_layer 	interests[12] 	83421
scalar abilene_cost_network.node[12].core_layer 	repo_load[12] 	83421
scalar abilene_cost_network.node[12].core_layer 	data[12] 	0
scalar abilene_cost_network.node[12].content_store 	p_hit[12] 	0
scalar abilene_cost_network.node[12].content_store 	hits[12] 	0
scalar abilene_cost_network.node[12].content_store 	misses[12] 	83421
scalar abilene_cost_network.node[12].content_store 	decision_yes[12] 	0
scalar abilene_cost_network.node[12].content_store 	decision_no[12] 	83421
scalar abilene_cost_network.node[12].content_store 	decision_ratio[12] 	0
scalar abilene_cost_network.node[13].core_layer 	interests[13] 	94184
scalar abilene_cost_network.node[13].core_layer 	repo_load[13] 	94184
scalar abilene_cost_network.node[13].core_layer 	data[13] 	0
scalar abilene_cost_network.node[13].content_store 	p_hit[13] 	0
scalar abilene_cost_network.node[13].content_store 	hits[13] 	0
scalar abilene_cost_network.node[13].content_store 	misses[13] 	94184
scalar abilene_cost_network.node[13].content_store 	decision_yes[13] 	0
scalar abilene_cost_network.node[13].content_store 	decision_no[13] 	94184
scalar abilene_cost_network.node[13].content_store 	decision_ratio[13] 	0
scalar abilene_cost_network.client[0] 	hdistance[0] 	2.1928228259845
scalar abilene_cost_network.client[0] 	downloads[0] 	180461
scalar abilene_cost_network.client[0] 	avg_time[0] 	0.008796836591
scalar abilene_cost_network.client[0] 	interests_sent[0] 	180482
scalar abilene_cost_network.client[5] 	hdistance[5] 	2.9828283951304
scalar abilene_cost_network.client[5] 	downloads[5] 	179890
scalar abilene_cost_network.client[5] 	avg_time[5] 	0.010739296706
scalar abilene_cost_network.client[5] 	interests_sent[5] 	179922
scalar abilene_cost_network.client[9] 	hdistance[9] 	1.9852466522968
scalar abilene_cost_network.client[9] 	downloads[9] 	179078
scalar abilene_cost_network.client[9] 	avg_time[9] 	0.007549350143
scalar abilene_cost_network.client[9] 	interests_sent[9] 	179103
