version 2
run General-7-20140902-15:52:24-20484
attr D fix0.01
attr F nrr
attr R lru
attr a 1
attr configname General
attr csize 1e3
attr ctlg 1e5
attr datetime 20140902-15:52:24
attr experiment General
attr inifile omnetpp.ini
attr iterationvars "$net=abilene_cost, $rep=18, $priceratiovalue=10, $weights=0.333_0.333_0.334, $lambda=100, $a=1, $ctlg=1e5, $F=nrr, $ttl=10, $D=fix0.01, $xi=1, $R=lru, $csize=1e3, $pricebits=0, $window=60, $variance=0.05, $mytime=1800"
attr iterationvars2 "$net=abilene_cost, $rep=18, $priceratiovalue=10, $weights=0.333_0.333_0.334, $lambda=100, $a=1, $ctlg=1e5, $F=nrr, $ttl=10, $D=fix0.01, $xi=1, $R=lru, $csize=1e3, $pricebits=0, $window=60, $variance=0.05, $mytime=1800, $repetition=0"
attr lambda 100
attr measurement "$net=abilene_cost, $rep=18, $priceratiovalue=10, $weights=0.333_0.333_0.334, $lambda=100, $a=1, $ctlg=1e5, $F=nrr, $ttl=10, $D=fix0.01, $xi=1, $R=lru, $csize=1e3, $pricebits=0, $window=60, $variance=0.05, $mytime=1800"
attr mytime 1800
attr net abilene_cost
attr network networks.${net=abilene_cost}_network
attr pricebits 0
attr priceratiovalue 10
attr processid 20484
attr rep 18
attr repetition 0
attr replication #0
attr resultdir results
attr runnumber 7
attr seedset 18
attr ttl 10
attr variance 0.05
attr weights 0.333_0.333_0.334
attr window 60
attr xi 1

scalar . 	a 	1
scalar . 	csize 	1e3
scalar . 	ctlg 	1e5
scalar . 	lambda 	100
scalar . 	mytime 	1800
scalar . 	pricebits 	0
scalar . 	priceratiovalue 	10
scalar . 	rep 	18
scalar . 	ttl 	10
scalar . 	variance 	0.05
scalar . 	window 	60
scalar . 	xi 	1
scalar abilene_cost_network.content_distribution 	repo-0 	10
scalar abilene_cost_network.content_distribution 	repo-1 	7
scalar abilene_cost_network.content_distribution 	repo-2 	8
scalar abilene_cost_network.content_distribution 	client-0 	5
scalar abilene_cost_network.content_distribution 	client-1 	7
scalar abilene_cost_network.content_distribution 	client-2 	1
scalar abilene_cost_network.content_distribution 	repo-0_card 	33459
scalar abilene_cost_network.content_distribution 	repo-0_price 	10
scalar abilene_cost_network.content_distribution 	repo-1_card 	33217
scalar abilene_cost_network.content_distribution 	repo-1_price 	1
scalar abilene_cost_network.content_distribution 	repo-2_card 	33324
scalar abilene_cost_network.content_distribution 	repo-2_price 	0
scalar abilene_cost_network.statistics 	repo_popularity[0] 	0.37601233625496
scalar abilene_cost_network.statistics 	repo_popularity[1] 	0.2643417951054
scalar abilene_cost_network.statistics 	repo_popularity[2] 	0.35964586863965
scalar abilene_cost_network.statistics 	stabilization_time 	36060
scalar abilene_cost_network.statistics 	p_hit 	0.22989138872464
scalar abilene_cost_network.statistics 	interests 	110084
scalar abilene_cost_network.statistics 	data 	60921.454545455
scalar abilene_cost_network.statistics 	hdistance 	1.7253290003048
scalar abilene_cost_network.statistics 	avg_time 	0.007605171984
scalar abilene_cost_network.statistics 	downloads 	540722
scalar abilene_cost_network.statistics 	total_cost 	909628
scalar abilene_cost_network.statistics 	total_replicas 	100000
scalar abilene_cost_network.statistics 	inner_hit 	0.51483941840724
scalar abilene_cost_network.statistics 	interests_sent 	540785
scalar abilene_cost_network.node[0].core_layer 	interests[0] 	0
scalar abilene_cost_network.node[0].core_layer 	data[0] 	0
scalar abilene_cost_network.node[0].core_layer 	repo_int[0] 	262337
scalar abilene_cost_network.node[0].content_store 	p_hit[0] 	-nan
scalar abilene_cost_network.node[0].content_store 	hits[0] 	0
scalar abilene_cost_network.node[0].content_store 	misses[0] 	0
scalar abilene_cost_network.node[0].content_store 	decision_yes[0] 	0
scalar abilene_cost_network.node[0].content_store 	decision_no[0] 	0
scalar abilene_cost_network.node[0].content_store 	decision_ratio[0] 	0
scalar abilene_cost_network.node[1].core_layer 	interests[1] 	206785
scalar abilene_cost_network.node[1].core_layer 	data[1] 	136663
scalar abilene_cost_network.node[1].content_store 	p_hit[1] 	0.33896075634113
scalar abilene_cost_network.node[1].content_store 	hits[1] 	70092
scalar abilene_cost_network.node[1].content_store 	misses[1] 	136693
scalar abilene_cost_network.node[1].content_store 	decision_yes[1] 	1326
scalar abilene_cost_network.node[1].content_store 	decision_no[1] 	135337
scalar abilene_cost_network.node[1].content_store 	decision_ratio[1] 	0.009702699340714
scalar abilene_cost_network.node[2].core_layer 	interests[2] 	107272
scalar abilene_cost_network.node[2].core_layer 	data[2] 	97377
scalar abilene_cost_network.node[2].content_store 	p_hit[2] 	0.092232828697144
scalar abilene_cost_network.node[2].content_store 	hits[2] 	9894
scalar abilene_cost_network.node[2].content_store 	misses[2] 	97378
scalar abilene_cost_network.node[2].content_store 	decision_yes[2] 	951
scalar abilene_cost_network.node[2].content_store 	decision_no[2] 	96426
scalar abilene_cost_network.node[2].content_store 	decision_ratio[2] 	0.009766166548569
scalar abilene_cost_network.node[3].core_layer 	interests[3] 	79603
scalar abilene_cost_network.node[3].core_layer 	data[3] 	65851
scalar abilene_cost_network.node[3].content_store 	p_hit[3] 	0.17274474580104
scalar abilene_cost_network.node[3].content_store 	hits[3] 	13751
scalar abilene_cost_network.node[3].content_store 	misses[3] 	65852
scalar abilene_cost_network.node[3].content_store 	decision_yes[3] 	666
scalar abilene_cost_network.node[3].content_store 	decision_no[3] 	65185
scalar abilene_cost_network.node[3].content_store 	decision_ratio[3] 	0.010113741628829
scalar abilene_cost_network.node[4].core_layer 	interests[4] 	44104
scalar abilene_cost_network.node[4].core_layer 	data[4] 	33078
scalar abilene_cost_network.node[4].content_store 	p_hit[4] 	0.24997732631961
scalar abilene_cost_network.node[4].content_store 	hits[4] 	11025
scalar abilene_cost_network.node[4].content_store 	misses[4] 	33079
scalar abilene_cost_network.node[4].content_store 	decision_yes[4] 	302
scalar abilene_cost_network.node[4].content_store 	decision_no[4] 	32776
scalar abilene_cost_network.node[4].content_store 	decision_ratio[4] 	0.0091299353044319
scalar abilene_cost_network.node[5].core_layer 	interests[5] 	182044
scalar abilene_cost_network.node[5].core_layer 	data[5] 	109533
scalar abilene_cost_network.node[5].content_store 	p_hit[5] 	0.39820043505966
scalar abilene_cost_network.node[5].content_store 	hits[5] 	72490
scalar abilene_cost_network.node[5].content_store 	misses[5] 	109554
scalar abilene_cost_network.node[5].content_store 	decision_yes[5] 	1098
scalar abilene_cost_network.node[5].content_store 	decision_no[5] 	108435
scalar abilene_cost_network.node[5].content_store 	decision_ratio[5] 	0.010024376215387
scalar abilene_cost_network.node[6].core_layer 	interests[6] 	78282
scalar abilene_cost_network.node[6].core_layer 	data[6] 	64060
scalar abilene_cost_network.node[6].content_store 	p_hit[6] 	0.18168927722848
scalar abilene_cost_network.node[6].content_store 	hits[6] 	14223
scalar abilene_cost_network.node[6].content_store 	misses[6] 	64059
scalar abilene_cost_network.node[6].content_store 	decision_yes[6] 	601
scalar abilene_cost_network.node[6].content_store 	decision_no[6] 	63459
scalar abilene_cost_network.node[6].content_store 	decision_ratio[6] 	0.0093818295348111
scalar abilene_cost_network.node[7].core_layer 	interests[7] 	274307
scalar abilene_cost_network.node[7].core_layer 	repo_load[7] 	96388
scalar abilene_cost_network.node[7].core_layer 	data[7] 	106805
scalar abilene_cost_network.node[7].content_store 	p_hit[7] 	0.25919134400507
scalar abilene_cost_network.node[7].content_store 	hits[7] 	71098
scalar abilene_cost_network.node[7].content_store 	misses[7] 	203209
scalar abilene_cost_network.node[7].content_store 	decision_yes[7] 	2096
scalar abilene_cost_network.node[7].content_store 	decision_no[7] 	201097
scalar abilene_cost_network.node[7].content_store 	decision_ratio[7] 	0.010315315980373
scalar abilene_cost_network.node[8].core_layer 	interests[8] 	121804
scalar abilene_cost_network.node[8].core_layer 	repo_load[8] 	84625
scalar abilene_cost_network.node[8].core_layer 	data[8] 	29933
scalar abilene_cost_network.node[8].content_store 	p_hit[8] 	0.059480805228071
scalar abilene_cost_network.node[8].content_store 	hits[8] 	7245
scalar abilene_cost_network.node[8].content_store 	misses[8] 	114559
scalar abilene_cost_network.node[8].content_store 	decision_yes[8] 	1120
scalar abilene_cost_network.node[8].content_store 	decision_no[8] 	113438
scalar abilene_cost_network.node[8].content_store 	decision_ratio[8] 	0.009776706995583
scalar abilene_cost_network.node[9].core_layer 	interests[9] 	29934
scalar abilene_cost_network.node[9].core_layer 	data[9] 	26836
scalar abilene_cost_network.node[9].content_store 	p_hit[9] 	0.10349435424601
scalar abilene_cost_network.node[9].content_store 	hits[9] 	3098
scalar abilene_cost_network.node[9].content_store 	misses[9] 	26836
scalar abilene_cost_network.node[9].content_store 	decision_yes[9] 	261
scalar abilene_cost_network.node[9].content_store 	decision_no[9] 	26575
scalar abilene_cost_network.node[9].content_store 	decision_ratio[9] 	0.0097257415412133
scalar abilene_cost_network.node[10].core_layer 	interests[10] 	86789
scalar abilene_cost_network.node[10].core_layer 	repo_load[10] 	81324
scalar abilene_cost_network.node[10].core_layer 	data[10] 	0
scalar abilene_cost_network.node[10].content_store 	p_hit[10] 	0.062968809411331
scalar abilene_cost_network.node[10].content_store 	hits[10] 	5465
scalar abilene_cost_network.node[10].content_store 	misses[10] 	81324
scalar abilene_cost_network.node[10].content_store 	decision_yes[10] 	828
scalar abilene_cost_network.node[10].content_store 	decision_no[10] 	80496
scalar abilene_cost_network.node[10].content_store 	decision_ratio[10] 	0.010181496237273
scalar abilene_cost_network.client[1] 	hdistance[1] 	1.6843803547188
scalar abilene_cost_network.client[1] 	downloads[1] 	179748
scalar abilene_cost_network.client[1] 	avg_time[1] 	0.007518465339
scalar abilene_cost_network.client[1] 	interests_sent[1] 	179775
scalar abilene_cost_network.client[5] 	hdistance[5] 	2.2361016205286
scalar abilene_cost_network.client[5] 	downloads[5] 	180003
scalar abilene_cost_network.client[5] 	avg_time[5] 	0.00947336028
scalar abilene_cost_network.client[5] 	interests_sent[5] 	180024
scalar abilene_cost_network.client[7] 	hdistance[7] 	1.2555050256671
scalar abilene_cost_network.client[7] 	downloads[7] 	180971
scalar abilene_cost_network.client[7] 	avg_time[7] 	0.005823690333
scalar abilene_cost_network.client[7] 	interests_sent[7] 	180986
