version 2
run General-3-20140902-15:28:31-4518
attr D fix0.01
attr F nrr
attr R lru
attr a 1
attr configname General
attr csize 1e3
attr ctlg 1e5
attr datetime 20140902-15:28:31
attr experiment General
attr inifile omnetpp.ini
attr iterationvars "$net=abilene_cost, $rep=19, $priceratiovalue=10, $weights=0.333_0.333_0.334, $lambda=100, $a=1, $ctlg=1e5, $F=nrr, $ttl=10, $D=fix0.01, $xi=1, $R=lru, $csize=1e3, $pricebits=0, $window=60, $variance=0.05, $mytime=1800"
attr iterationvars2 "$net=abilene_cost, $rep=19, $priceratiovalue=10, $weights=0.333_0.333_0.334, $lambda=100, $a=1, $ctlg=1e5, $F=nrr, $ttl=10, $D=fix0.01, $xi=1, $R=lru, $csize=1e3, $pricebits=0, $window=60, $variance=0.05, $mytime=1800, $repetition=0"
attr lambda 100
attr measurement "$net=abilene_cost, $rep=19, $priceratiovalue=10, $weights=0.333_0.333_0.334, $lambda=100, $a=1, $ctlg=1e5, $F=nrr, $ttl=10, $D=fix0.01, $xi=1, $R=lru, $csize=1e3, $pricebits=0, $window=60, $variance=0.05, $mytime=1800"
attr mytime 1800
attr net abilene_cost
attr network networks.${net=abilene_cost}_network
attr pricebits 0
attr priceratiovalue 10
attr processid 4518
attr rep 19
attr repetition 0
attr replication #0
attr resultdir results
attr runnumber 3
attr seedset 19
attr ttl 10
attr variance 0.05
attr weights 0.333_0.333_0.334
attr window 60
attr xi 1

scalar . 	a 	1
scalar . 	csize 	1e3
scalar . 	ctlg 	1e5
scalar . 	lambda 	100
scalar . 	mytime 	1800
scalar . 	pricebits 	0
scalar . 	priceratiovalue 	10
scalar . 	rep 	19
scalar . 	ttl 	10
scalar . 	variance 	0.05
scalar . 	window 	60
scalar . 	xi 	1
scalar abilene_cost_network.content_distribution 	repo-0 	3
scalar abilene_cost_network.content_distribution 	repo-1 	0
scalar abilene_cost_network.content_distribution 	repo-2 	7
scalar abilene_cost_network.content_distribution 	client-0 	5
scalar abilene_cost_network.content_distribution 	client-1 	3
scalar abilene_cost_network.content_distribution 	client-2 	4
scalar abilene_cost_network.content_distribution 	repo-0_card 	33373
scalar abilene_cost_network.content_distribution 	repo-0_price 	0
scalar abilene_cost_network.content_distribution 	repo-1_card 	33387
scalar abilene_cost_network.content_distribution 	repo-1_price 	10
scalar abilene_cost_network.content_distribution 	repo-2_card 	33240
scalar abilene_cost_network.content_distribution 	repo-2_price 	1
scalar abilene_cost_network.statistics 	repo_popularity[0] 	0.31878344310933
scalar abilene_cost_network.statistics 	repo_popularity[1] 	0.40125644479525
scalar abilene_cost_network.statistics 	repo_popularity[2] 	0.27996011209543
scalar abilene_cost_network.statistics 	stabilization_time 	36060
scalar abilene_cost_network.statistics 	p_hit 	0.22310115089767
scalar abilene_cost_network.statistics 	interests 	110143.27272727
scalar abilene_cost_network.statistics 	data 	61002.727272727
scalar abilene_cost_network.statistics 	hdistance 	1.7418415208162
scalar abilene_cost_network.statistics 	avg_time 	0.006411787005
scalar abilene_cost_network.statistics 	downloads 	540497
scalar abilene_cost_network.statistics 	total_cost 	879274
scalar abilene_cost_network.statistics 	total_replicas 	100000
scalar abilene_cost_network.statistics 	inner_hit 	0.50018779012649
scalar abilene_cost_network.statistics 	interests_sent 	540543
scalar abilene_cost_network.node[0].core_layer 	interests[0] 	83393
scalar abilene_cost_network.node[0].core_layer 	repo_load[0] 	79430
scalar abilene_cost_network.node[0].core_layer 	data[0] 	0
scalar abilene_cost_network.node[0].core_layer 	repo_int[0] 	270147
scalar abilene_cost_network.node[0].content_store 	p_hit[0] 	0.047521974266425
scalar abilene_cost_network.node[0].content_store 	hits[0] 	3963
scalar abilene_cost_network.node[0].content_store 	misses[0] 	79430
scalar abilene_cost_network.node[0].content_store 	decision_yes[0] 	801
scalar abilene_cost_network.node[0].content_store 	decision_no[0] 	78629
scalar abilene_cost_network.node[0].content_store 	decision_ratio[0] 	0.010084351000881
scalar abilene_cost_network.node[1].core_layer 	interests[1] 	89006
scalar abilene_cost_network.node[1].core_layer 	data[1] 	83393
scalar abilene_cost_network.node[1].content_store 	p_hit[1] 	0.06306316428106
scalar abilene_cost_network.node[1].content_store 	hits[1] 	5613
scalar abilene_cost_network.node[1].content_store 	misses[1] 	83393
scalar abilene_cost_network.node[1].content_store 	decision_yes[1] 	818
scalar abilene_cost_network.node[1].content_store 	decision_no[1] 	82575
scalar abilene_cost_network.node[1].content_store 	decision_ratio[1] 	0.0098089767726308
scalar abilene_cost_network.node[2].core_layer 	interests[2] 	98524
scalar abilene_cost_network.node[2].core_layer 	data[2] 	89005
scalar abilene_cost_network.node[2].content_store 	p_hit[2] 	0.096605903130202
scalar abilene_cost_network.node[2].content_store 	hits[2] 	9518
scalar abilene_cost_network.node[2].content_store 	misses[2] 	89006
scalar abilene_cost_network.node[2].content_store 	decision_yes[2] 	900
scalar abilene_cost_network.node[2].content_store 	decision_no[2] 	88105
scalar abilene_cost_network.node[2].content_store 	decision_ratio[2] 	0.010111791472389
scalar abilene_cost_network.node[3].core_layer 	interests[3] 	351049
scalar abilene_cost_network.node[3].core_layer 	repo_load[3] 	105743
scalar abilene_cost_network.node[3].core_layer 	data[3] 	172485
scalar abilene_cost_network.node[3].content_store 	p_hit[3] 	0.20733287945557
scalar abilene_cost_network.node[3].content_store 	hits[3] 	72784
scalar abilene_cost_network.node[3].content_store 	misses[3] 	278265
scalar abilene_cost_network.node[3].content_store 	decision_yes[3] 	2688
scalar abilene_cost_network.node[3].content_store 	decision_no[3] 	275540
scalar abilene_cost_network.node[3].content_store 	decision_ratio[3] 	0.0096611412223069
scalar abilene_cost_network.node[4].core_layer 	interests[4] 	266660
scalar abilene_cost_network.node[4].core_layer 	data[4] 	182880
scalar abilene_cost_network.node[4].content_store 	p_hit[4] 	0.31404785119628
scalar abilene_cost_network.node[4].content_store 	hits[4] 	83744
scalar abilene_cost_network.node[4].content_store 	misses[4] 	182916
scalar abilene_cost_network.node[4].content_store 	decision_yes[4] 	1830
scalar abilene_cost_network.node[4].content_store 	decision_no[4] 	181050
scalar abilene_cost_network.node[4].content_store 	decision_ratio[4] 	0.01000656167979
scalar abilene_cost_network.node[5].core_layer 	interests[5] 	191724
scalar abilene_cost_network.node[5].core_layer 	data[5] 	113252
scalar abilene_cost_network.node[5].content_store 	p_hit[5] 	0.40918716488285
scalar abilene_cost_network.node[5].content_store 	hits[5] 	78451
scalar abilene_cost_network.node[5].content_store 	misses[5] 	113273
scalar abilene_cost_network.node[5].content_store 	decision_yes[5] 	1195
scalar abilene_cost_network.node[5].content_store 	decision_no[5] 	112057
scalar abilene_cost_network.node[5].content_store 	decision_ratio[5] 	0.010551690036379
scalar abilene_cost_network.node[6].core_layer 	interests[6] 	37554
scalar abilene_cost_network.node[6].core_layer 	data[6] 	30015
scalar abilene_cost_network.node[6].content_store 	p_hit[6] 	0.2007509186771
scalar abilene_cost_network.node[6].content_store 	hits[6] 	7539
scalar abilene_cost_network.node[6].content_store 	misses[6] 	30015
scalar abilene_cost_network.node[6].content_store 	decision_yes[6] 	303
scalar abilene_cost_network.node[6].content_store 	decision_no[6] 	29712
scalar abilene_cost_network.node[6].content_store 	decision_ratio[6] 	0.010094952523738
scalar abilene_cost_network.node[7].core_layer 	interests[7] 	93666
scalar abilene_cost_network.node[7].core_layer 	repo_load[7] 	84974
scalar abilene_cost_network.node[7].core_layer 	data[7] 	0
scalar abilene_cost_network.node[7].content_store 	p_hit[7] 	0.092797813507569
scalar abilene_cost_network.node[7].content_store 	hits[7] 	8692
scalar abilene_cost_network.node[7].content_store 	misses[7] 	84974
scalar abilene_cost_network.node[7].content_store 	decision_yes[7] 	830
scalar abilene_cost_network.node[7].content_store 	decision_no[7] 	84144
scalar abilene_cost_network.node[7].content_store 	decision_ratio[7] 	0.0097676936474686
scalar abilene_cost_network.node[8].core_layer 	interests[8] 	0
scalar abilene_cost_network.node[8].core_layer 	data[8] 	0
scalar abilene_cost_network.node[8].content_store 	p_hit[8] 	-nan
scalar abilene_cost_network.node[8].content_store 	hits[8] 	0
scalar abilene_cost_network.node[8].content_store 	misses[8] 	0
scalar abilene_cost_network.node[8].content_store 	decision_yes[8] 	0
scalar abilene_cost_network.node[8].content_store 	decision_no[8] 	0
scalar abilene_cost_network.node[8].content_store 	decision_ratio[8] 	0
scalar abilene_cost_network.node[9].core_layer 	interests[9] 	0
scalar abilene_cost_network.node[9].core_layer 	data[9] 	0
scalar abilene_cost_network.node[9].content_store 	p_hit[9] 	-nan
scalar abilene_cost_network.node[9].content_store 	hits[9] 	0
scalar abilene_cost_network.node[9].content_store 	misses[9] 	0
scalar abilene_cost_network.node[9].content_store 	decision_yes[9] 	0
scalar abilene_cost_network.node[9].content_store 	decision_no[9] 	0
scalar abilene_cost_network.node[9].content_store 	decision_ratio[9] 	0
scalar abilene_cost_network.node[10].core_layer 	interests[10] 	0
scalar abilene_cost_network.node[10].core_layer 	data[10] 	0
scalar abilene_cost_network.node[10].content_store 	p_hit[10] 	-nan
scalar abilene_cost_network.node[10].content_store 	hits[10] 	0
scalar abilene_cost_network.node[10].content_store 	misses[10] 	0
scalar abilene_cost_network.node[10].content_store 	decision_yes[10] 	0
scalar abilene_cost_network.node[10].content_store 	decision_no[10] 	0
scalar abilene_cost_network.node[10].content_store 	decision_ratio[10] 	0
scalar abilene_cost_network.client[3] 	hdistance[3] 	1.2851876936059
scalar abilene_cost_network.client[3] 	downloads[3] 	180134
scalar abilene_cost_network.client[3] 	avg_time[3] 	0.004623811852
scalar abilene_cost_network.client[3] 	interests_sent[3] 	180145
scalar abilene_cost_network.client[4] 	hdistance[4] 	1.7870646656001
scalar abilene_cost_network.client[4] 	downloads[4] 	180637
scalar abilene_cost_network.client[4] 	avg_time[4] 	0.005759376348
scalar abilene_cost_network.client[4] 	interests_sent[4] 	180651
scalar abilene_cost_network.client[5] 	hdistance[5] 	2.1532722032427
scalar abilene_cost_network.client[5] 	downloads[5] 	179726
scalar abilene_cost_network.client[5] 	avg_time[5] 	0.008852172815
scalar abilene_cost_network.client[5] 	interests_sent[5] 	179747
