version 2
run General-11-20140902-15:38:24-27559
attr D fix0.01
attr F nrr
attr R lru
attr a 1
attr configname General
attr csize 1e3
attr ctlg 1e5
attr datetime 20140902-15:38:24
attr experiment General
attr inifile omnetpp.ini
attr iterationvars "$net=abilene_cost, $rep=13, $priceratiovalue=10, $weights=0.333_0.333_0.334, $lambda=100, $a=1, $ctlg=1e5, $F=nrr, $ttl=10, $D=fix0.01, $xi=1, $R=lru, $csize=1e3, $pricebits=0, $window=60, $variance=0.05, $mytime=1800"
attr iterationvars2 "$net=abilene_cost, $rep=13, $priceratiovalue=10, $weights=0.333_0.333_0.334, $lambda=100, $a=1, $ctlg=1e5, $F=nrr, $ttl=10, $D=fix0.01, $xi=1, $R=lru, $csize=1e3, $pricebits=0, $window=60, $variance=0.05, $mytime=1800, $repetition=0"
attr lambda 100
attr measurement "$net=abilene_cost, $rep=13, $priceratiovalue=10, $weights=0.333_0.333_0.334, $lambda=100, $a=1, $ctlg=1e5, $F=nrr, $ttl=10, $D=fix0.01, $xi=1, $R=lru, $csize=1e3, $pricebits=0, $window=60, $variance=0.05, $mytime=1800"
attr mytime 1800
attr net abilene_cost
attr network networks.${net=abilene_cost}_network
attr pricebits 0
attr priceratiovalue 10
attr processid 27559
attr rep 13
attr repetition 0
attr replication #0
attr resultdir results
attr runnumber 11
attr seedset 13
attr ttl 10
attr variance 0.05
attr weights 0.333_0.333_0.334
attr window 60
attr xi 1

scalar . 	a 	1
scalar . 	csize 	1e3
scalar . 	ctlg 	1e5
scalar . 	lambda 	100
scalar . 	mytime 	1800
scalar . 	pricebits 	0
scalar . 	priceratiovalue 	10
scalar . 	rep 	13
scalar . 	ttl 	10
scalar . 	variance 	0.05
scalar . 	window 	60
scalar . 	xi 	1
scalar abilene_cost_network.content_distribution 	repo-0 	6
scalar abilene_cost_network.content_distribution 	repo-1 	7
scalar abilene_cost_network.content_distribution 	repo-2 	5
scalar abilene_cost_network.content_distribution 	client-0 	8
scalar abilene_cost_network.content_distribution 	client-1 	2
scalar abilene_cost_network.content_distribution 	client-2 	1
scalar abilene_cost_network.content_distribution 	repo-0_card 	33148
scalar abilene_cost_network.content_distribution 	repo-0_price 	0
scalar abilene_cost_network.content_distribution 	repo-1_card 	33484
scalar abilene_cost_network.content_distribution 	repo-1_price 	1
scalar abilene_cost_network.content_distribution 	repo-2_card 	33368
scalar abilene_cost_network.content_distribution 	repo-2_price 	10
scalar abilene_cost_network.statistics 	repo_popularity[0] 	0.30980219785013
scalar abilene_cost_network.statistics 	repo_popularity[1] 	0.41260472724909
scalar abilene_cost_network.statistics 	repo_popularity[2] 	0.27759307490078
scalar abilene_cost_network.statistics 	stabilization_time 	36060
scalar abilene_cost_network.statistics 	p_hit 	0.20211602527615
scalar abilene_cost_network.statistics 	interests 	125853.45454545
scalar abilene_cost_network.statistics 	data 	76738.181818182
scalar abilene_cost_network.statistics 	hdistance 	2.044839285718
scalar abilene_cost_network.statistics 	avg_time 	0.008350218938
scalar abilene_cost_network.statistics 	downloads 	540182
scalar abilene_cost_network.statistics 	total_cost 	899799
scalar abilene_cost_network.statistics 	total_replicas 	100000
scalar abilene_cost_network.statistics 	inner_hit 	0.51806428203828
scalar abilene_cost_network.statistics 	interests_sent 	540268
scalar abilene_cost_network.node[0].core_layer 	interests[0] 	0
scalar abilene_cost_network.node[0].core_layer 	data[0] 	0
scalar abilene_cost_network.node[0].core_layer 	repo_int[0] 	260333
scalar abilene_cost_network.node[0].content_store 	p_hit[0] 	-nan
scalar abilene_cost_network.node[0].content_store 	hits[0] 	0
scalar abilene_cost_network.node[0].content_store 	misses[0] 	0
scalar abilene_cost_network.node[0].content_store 	decision_yes[0] 	0
scalar abilene_cost_network.node[0].content_store 	decision_no[0] 	0
scalar abilene_cost_network.node[0].content_store 	decision_ratio[0] 	0
scalar abilene_cost_network.node[1].core_layer 	interests[1] 	189756
scalar abilene_cost_network.node[1].core_layer 	data[1] 	109618
scalar abilene_cost_network.node[1].content_store 	p_hit[1] 	0.42214738927886
scalar abilene_cost_network.node[1].content_store 	hits[1] 	80105
scalar abilene_cost_network.node[1].content_store 	misses[1] 	109651
scalar abilene_cost_network.node[1].content_store 	decision_yes[1] 	1152
scalar abilene_cost_network.node[1].content_store 	decision_no[1] 	108466
scalar abilene_cost_network.node[1].content_store 	decision_ratio[1] 	0.010509222937839
scalar abilene_cost_network.node[2].core_layer 	interests[2] 	304912
scalar abilene_cost_network.node[2].core_layer 	data[2] 	224712
scalar abilene_cost_network.node[2].content_store 	p_hit[2] 	0.26282665162408
scalar abilene_cost_network.node[2].content_store 	hits[2] 	80139
scalar abilene_cost_network.node[2].content_store 	misses[2] 	224773
scalar abilene_cost_network.node[2].content_store 	decision_yes[2] 	2243
scalar abilene_cost_network.node[2].content_store 	decision_no[2] 	222469
scalar abilene_cost_network.node[2].content_store 	decision_ratio[2] 	0.0099816654206273
scalar abilene_cost_network.node[3].core_layer 	interests[3] 	205390
scalar abilene_cost_network.node[3].core_layer 	data[3] 	193450
scalar abilene_cost_network.node[3].content_store 	p_hit[3] 	0.058128438580262
scalar abilene_cost_network.node[3].content_store 	hits[3] 	11939
scalar abilene_cost_network.node[3].content_store 	misses[3] 	193451
scalar abilene_cost_network.node[3].content_store 	decision_yes[3] 	1914
scalar abilene_cost_network.node[3].content_store 	decision_no[3] 	191536
scalar abilene_cost_network.node[3].content_store 	decision_ratio[3] 	0.009894029464978
scalar abilene_cost_network.node[4].core_layer 	interests[4] 	63032
scalar abilene_cost_network.node[4].core_layer 	data[4] 	56381
scalar abilene_cost_network.node[4].content_store 	p_hit[4] 	0.10551783221221
scalar abilene_cost_network.node[4].content_store 	hits[4] 	6651
scalar abilene_cost_network.node[4].content_store 	misses[4] 	56381
scalar abilene_cost_network.node[4].content_store 	decision_yes[4] 	580
scalar abilene_cost_network.node[4].content_store 	decision_no[4] 	55801
scalar abilene_cost_network.node[4].content_store 	decision_ratio[4] 	0.010287153473688
scalar abilene_cost_network.node[5].core_layer 	interests[5] 	84830
scalar abilene_cost_network.node[5].core_layer 	repo_load[5] 	80672
scalar abilene_cost_network.node[5].core_layer 	data[5] 	0
scalar abilene_cost_network.node[5].content_store 	p_hit[5] 	0.049015678415655
scalar abilene_cost_network.node[5].content_store 	hits[5] 	4158
scalar abilene_cost_network.node[5].content_store 	misses[5] 	80672
scalar abilene_cost_network.node[5].content_store 	decision_yes[5] 	844
scalar abilene_cost_network.node[5].content_store 	decision_no[5] 	79828
scalar abilene_cost_network.node[5].content_store 	decision_ratio[5] 	0.010462118207061
scalar abilene_cost_network.node[6].core_layer 	interests[6] 	121346
scalar abilene_cost_network.node[6].core_layer 	repo_load[6] 	86582
scalar abilene_cost_network.node[6].core_layer 	data[6] 	28449
scalar abilene_cost_network.node[6].content_store 	p_hit[6] 	0.052041270416825
scalar abilene_cost_network.node[6].content_store 	hits[6] 	6315
scalar abilene_cost_network.node[6].content_store 	misses[6] 	115031
scalar abilene_cost_network.node[6].content_store 	decision_yes[6] 	1169
scalar abilene_cost_network.node[6].content_store 	decision_no[6] 	113862
scalar abilene_cost_network.node[6].content_store 	decision_ratio[6] 	0.010162477940729
scalar abilene_cost_network.node[7].core_layer 	interests[7] 	225065
scalar abilene_cost_network.node[7].core_layer 	repo_load[7] 	93079
scalar abilene_cost_network.node[7].core_layer 	data[7] 	121346
scalar abilene_cost_network.node[7].content_store 	p_hit[7] 	0.047248572634572
scalar abilene_cost_network.node[7].content_store 	hits[7] 	10634
scalar abilene_cost_network.node[7].content_store 	misses[7] 	214431
scalar abilene_cost_network.node[7].content_store 	decision_yes[7] 	2124
scalar abilene_cost_network.node[7].content_store 	decision_no[7] 	212301
scalar abilene_cost_network.node[7].content_store 	decision_ratio[7] 	0.0099055613850997
scalar abilene_cost_network.node[8].core_layer 	interests[8] 	190057
scalar abilene_cost_network.node[8].core_layer 	data[8] 	110164
scalar abilene_cost_network.node[8].content_store 	p_hit[8] 	0.42022130203044
scalar abilene_cost_network.node[8].content_store 	hits[8] 	79866
scalar abilene_cost_network.node[8].content_store 	misses[8] 	110191
scalar abilene_cost_network.node[8].content_store 	decision_yes[8] 	1067
scalar abilene_cost_network.node[8].content_store 	decision_no[8] 	109097
scalar abilene_cost_network.node[8].content_store 	decision_ratio[8] 	0.0096855597109764
scalar abilene_cost_network.node[9].core_layer 	interests[9] 	0
scalar abilene_cost_network.node[9].core_layer 	data[9] 	0
scalar abilene_cost_network.node[9].content_store 	p_hit[9] 	-nan
scalar abilene_cost_network.node[9].content_store 	hits[9] 	0
scalar abilene_cost_network.node[9].content_store 	misses[9] 	0
scalar abilene_cost_network.node[9].content_store 	decision_yes[9] 	0
scalar abilene_cost_network.node[9].content_store 	decision_no[9] 	0
scalar abilene_cost_network.node[9].content_store 	decision_ratio[9] 	0
scalar abilene_cost_network.node[10].core_layer 	interests[10] 	0
scalar abilene_cost_network.node[10].core_layer 	data[10] 	0
scalar abilene_cost_network.node[10].content_store 	p_hit[10] 	-nan
scalar abilene_cost_network.node[10].content_store 	hits[10] 	0
scalar abilene_cost_network.node[10].content_store 	misses[10] 	0
scalar abilene_cost_network.node[10].content_store 	decision_yes[10] 	0
scalar abilene_cost_network.node[10].content_store 	decision_no[10] 	0
scalar abilene_cost_network.node[10].content_store 	decision_ratio[10] 	0
scalar abilene_cost_network.client[1] 	hdistance[1] 	2.5171257591402
scalar abilene_cost_network.client[1] 	downloads[1] 	180138
scalar abilene_cost_network.client[1] 	avg_time[1] 	0.010598717746
scalar abilene_cost_network.client[1] 	interests_sent[1] 	180171
scalar abilene_cost_network.client[2] 	hdistance[2] 	1.9719558057768
scalar abilene_cost_network.client[2] 	downloads[2] 	179752
scalar abilene_cost_network.client[2] 	avg_time[2] 	0.007335387298
scalar abilene_cost_network.client[2] 	interests_sent[2] 	179778
scalar abilene_cost_network.client[8] 	hdistance[8] 	1.6454362922371
scalar abilene_cost_network.client[8] 	downloads[8] 	180292
scalar abilene_cost_network.client[8] 	avg_time[8] 	0.007116551771
scalar abilene_cost_network.client[8] 	interests_sent[8] 	180319
