version 2
run General-15-20140902-16:03:33-17373
attr D fix0.01
attr F nrr
attr R lru
attr a 1
attr configname General
attr csize 1e3
attr ctlg 1e5
attr datetime 20140902-16:03:33
attr experiment General
attr inifile omnetpp.ini
attr iterationvars "$net=abilene_cost, $rep=4, $priceratiovalue=10, $weights=0.333_0.333_0.334, $lambda=100, $a=1, $ctlg=1e5, $F=nrr, $ttl=10, $D=fix0.01, $xi=1, $R=lru, $csize=1e3, $pricebits=0, $window=60, $variance=0.05, $mytime=1800"
attr iterationvars2 "$net=abilene_cost, $rep=4, $priceratiovalue=10, $weights=0.333_0.333_0.334, $lambda=100, $a=1, $ctlg=1e5, $F=nrr, $ttl=10, $D=fix0.01, $xi=1, $R=lru, $csize=1e3, $pricebits=0, $window=60, $variance=0.05, $mytime=1800, $repetition=0"
attr lambda 100
attr measurement "$net=abilene_cost, $rep=4, $priceratiovalue=10, $weights=0.333_0.333_0.334, $lambda=100, $a=1, $ctlg=1e5, $F=nrr, $ttl=10, $D=fix0.01, $xi=1, $R=lru, $csize=1e3, $pricebits=0, $window=60, $variance=0.05, $mytime=1800"
attr mytime 1800
attr net abilene_cost
attr network networks.${net=abilene_cost}_network
attr pricebits 0
attr priceratiovalue 10
attr processid 17373
attr rep 4
attr repetition 0
attr replication #0
attr resultdir results
attr runnumber 15
attr seedset 4
attr ttl 10
attr variance 0.05
attr weights 0.333_0.333_0.334
attr window 60
attr xi 1

scalar . 	a 	1
scalar . 	csize 	1e3
scalar . 	ctlg 	1e5
scalar . 	lambda 	100
scalar . 	mytime 	1800
scalar . 	pricebits 	0
scalar . 	priceratiovalue 	10
scalar . 	rep 	4
scalar . 	ttl 	10
scalar . 	variance 	0.05
scalar . 	window 	60
scalar . 	xi 	1
scalar abilene_cost_network.content_distribution 	repo-0 	2
scalar abilene_cost_network.content_distribution 	repo-1 	0
scalar abilene_cost_network.content_distribution 	repo-2 	10
scalar abilene_cost_network.content_distribution 	client-0 	6
scalar abilene_cost_network.content_distribution 	client-1 	2
scalar abilene_cost_network.content_distribution 	client-2 	4
scalar abilene_cost_network.content_distribution 	repo-0_card 	33274
scalar abilene_cost_network.content_distribution 	repo-0_price 	0
scalar abilene_cost_network.content_distribution 	repo-1_card 	33153
scalar abilene_cost_network.content_distribution 	repo-1_price 	1
scalar abilene_cost_network.content_distribution 	repo-2_card 	33573
scalar abilene_cost_network.content_distribution 	repo-2_price 	10
scalar abilene_cost_network.statistics 	repo_popularity[0] 	0.33945880017902
scalar abilene_cost_network.statistics 	repo_popularity[1] 	0.30988277584688
scalar abilene_cost_network.statistics 	repo_popularity[2] 	0.35065842397411
scalar abilene_cost_network.statistics 	stabilization_time 	3725.2
scalar abilene_cost_network.statistics 	p_hit 	0.20881101574315
scalar abilene_cost_network.statistics 	interests 	124377.36363636
scalar abilene_cost_network.statistics 	data 	75424.636363636
scalar abilene_cost_network.statistics 	hdistance 	2.0106221521407
scalar abilene_cost_network.statistics 	avg_time 	0.009400303874
scalar abilene_cost_network.statistics 	downloads 	538427
scalar abilene_cost_network.statistics 	total_cost 	819907
scalar abilene_cost_network.statistics 	total_replicas 	100000
scalar abilene_cost_network.statistics 	inner_hit 	0.5306661813022
scalar abilene_cost_network.statistics 	interests_sent 	538477
scalar abilene_cost_network.node[0].core_layer 	interests[0] 	81691
scalar abilene_cost_network.node[0].core_layer 	repo_load[0] 	77677
scalar abilene_cost_network.node[0].core_layer 	data[0] 	0
scalar abilene_cost_network.node[0].core_layer 	repo_int[0] 	252702
scalar abilene_cost_network.node[0].content_store 	p_hit[0] 	0.049136379772558
scalar abilene_cost_network.node[0].content_store 	hits[0] 	4014
scalar abilene_cost_network.node[0].content_store 	misses[0] 	77677
scalar abilene_cost_network.node[0].content_store 	decision_yes[0] 	769
scalar abilene_cost_network.node[0].content_store 	decision_no[0] 	76908
scalar abilene_cost_network.node[0].content_store 	decision_ratio[0] 	0.0098999703902056
scalar abilene_cost_network.node[1].core_layer 	interests[1] 	138105
scalar abilene_cost_network.node[1].core_layer 	data[1] 	133427
scalar abilene_cost_network.node[1].content_store 	p_hit[1] 	0.033872777958799
scalar abilene_cost_network.node[1].content_store 	hits[1] 	4678
scalar abilene_cost_network.node[1].content_store 	misses[1] 	133427
scalar abilene_cost_network.node[1].content_store 	decision_yes[1] 	1347
scalar abilene_cost_network.node[1].content_store 	decision_no[1] 	132080
scalar abilene_cost_network.node[1].content_store 	decision_ratio[1] 	0.010095407975897
scalar abilene_cost_network.node[2].core_layer 	interests[2] 	329837
scalar abilene_cost_network.node[2].core_layer 	repo_load[2] 	100802
scalar abilene_cost_network.node[2].core_layer 	data[2] 	161041
scalar abilene_cost_network.node[2].content_store 	p_hit[2] 	0.20603207038628
scalar abilene_cost_network.node[2].content_store 	hits[2] 	67957
scalar abilene_cost_network.node[2].content_store 	misses[2] 	261880
scalar abilene_cost_network.node[2].content_store 	decision_yes[2] 	2491
scalar abilene_cost_network.node[2].content_store 	decision_no[2] 	259352
scalar abilene_cost_network.node[2].content_store 	decision_ratio[2] 	0.0095133343262948
scalar abilene_cost_network.node[3].core_layer 	interests[3] 	177497
scalar abilene_cost_network.node[3].core_layer 	data[3] 	162105
scalar abilene_cost_network.node[3].content_store 	p_hit[3] 	0.086638084023955
scalar abilene_cost_network.node[3].content_store 	hits[3] 	15378
scalar abilene_cost_network.node[3].content_store 	misses[3] 	162119
scalar abilene_cost_network.node[3].content_store 	decision_yes[3] 	1608
scalar abilene_cost_network.node[3].content_store 	decision_no[3] 	160497
scalar abilene_cost_network.node[3].content_store 	decision_ratio[3] 	0.0099194966225595
scalar abilene_cost_network.node[4].core_layer 	interests[4] 	186548
scalar abilene_cost_network.node[4].core_layer 	data[4] 	110987
scalar abilene_cost_network.node[4].content_store 	p_hit[4] 	0.40495743722795
scalar abilene_cost_network.node[4].content_store 	hits[4] 	75544
scalar abilene_cost_network.node[4].content_store 	misses[4] 	111004
scalar abilene_cost_network.node[4].content_store 	decision_yes[4] 	1122
scalar abilene_cost_network.node[4].content_store 	decision_no[4] 	109865
scalar abilene_cost_network.node[4].content_store 	decision_ratio[4] 	0.010109292079253
scalar abilene_cost_network.node[5].core_layer 	interests[5] 	23070
scalar abilene_cost_network.node[5].core_layer 	data[5] 	2275
scalar abilene_cost_network.node[5].content_store 	p_hit[5] 	0.9013870827915
scalar abilene_cost_network.node[5].content_store 	hits[5] 	20795
scalar abilene_cost_network.node[5].content_store 	misses[5] 	2275
scalar abilene_cost_network.node[5].content_store 	decision_yes[5] 	19
scalar abilene_cost_network.node[5].content_store 	decision_no[5] 	2256
scalar abilene_cost_network.node[5].content_store 	decision_ratio[5] 	0.0083516483516484
scalar abilene_cost_network.node[6].core_layer 	interests[6] 	181103
scalar abilene_cost_network.node[6].core_layer 	data[6] 	109939
scalar abilene_cost_network.node[6].content_store 	p_hit[6] 	0.39283170350574
scalar abilene_cost_network.node[6].content_store 	hits[6] 	71143
scalar abilene_cost_network.node[6].content_store 	misses[6] 	109960
scalar abilene_cost_network.node[6].content_store 	decision_yes[6] 	1019
scalar abilene_cost_network.node[6].content_store 	decision_no[6] 	108920
scalar abilene_cost_network.node[6].content_store 	decision_ratio[6] 	0.0092687763214146
scalar abilene_cost_network.node[7].core_layer 	interests[7] 	104464
scalar abilene_cost_network.node[7].core_layer 	data[7] 	93920
scalar abilene_cost_network.node[7].content_store 	p_hit[7] 	0.10091514780211
scalar abilene_cost_network.node[7].content_store 	hits[7] 	10542
scalar abilene_cost_network.node[7].content_store 	misses[7] 	93922
scalar abilene_cost_network.node[7].content_store 	decision_yes[7] 	1002
scalar abilene_cost_network.node[7].content_store 	decision_no[7] 	92918
scalar abilene_cost_network.node[7].content_store 	decision_ratio[7] 	0.010668654173765
scalar abilene_cost_network.node[8].core_layer 	interests[8] 	38123
scalar abilene_cost_network.node[8].core_layer 	data[8] 	29980
scalar abilene_cost_network.node[8].content_store 	p_hit[8] 	0.21354562862314
scalar abilene_cost_network.node[8].content_store 	hits[8] 	8141
scalar abilene_cost_network.node[8].content_store 	misses[8] 	29982
scalar abilene_cost_network.node[8].content_store 	decision_yes[8] 	290
scalar abilene_cost_network.node[8].content_store 	decision_no[8] 	29690
scalar abilene_cost_network.node[8].content_store 	decision_ratio[8] 	0.0096731154102735
scalar abilene_cost_network.node[9].core_layer 	interests[9] 	29980
scalar abilene_cost_network.node[9].core_layer 	data[9] 	25997
scalar abilene_cost_network.node[9].content_store 	p_hit[9] 	0.13285523682455
scalar abilene_cost_network.node[9].content_store 	hits[9] 	3983
scalar abilene_cost_network.node[9].content_store 	misses[9] 	25997
scalar abilene_cost_network.node[9].content_store 	decision_yes[9] 	270
scalar abilene_cost_network.node[9].content_store 	decision_no[9] 	25727
scalar abilene_cost_network.node[9].content_store 	decision_ratio[9] 	0.01038581374774
scalar abilene_cost_network.node[10].core_layer 	interests[10] 	77733
scalar abilene_cost_network.node[10].core_layer 	repo_load[10] 	74223
scalar abilene_cost_network.node[10].core_layer 	data[10] 	0
scalar abilene_cost_network.node[10].content_store 	p_hit[10] 	0.04515456755818
scalar abilene_cost_network.node[10].content_store 	hits[10] 	3510
scalar abilene_cost_network.node[10].content_store 	misses[10] 	74223
scalar abilene_cost_network.node[10].content_store 	decision_yes[10] 	738
scalar abilene_cost_network.node[10].content_store 	decision_no[10] 	73485
scalar abilene_cost_network.node[10].content_store 	decision_ratio[10] 	0.0099430095792409
scalar abilene_cost_network.client[2] 	hdistance[2] 	1.282512833647
scalar abilene_cost_network.client[2] 	downloads[2] 	179606
scalar abilene_cost_network.client[2] 	avg_time[2] 	0.005864745239
scalar abilene_cost_network.client[2] 	interests_sent[2] 	179620
scalar abilene_cost_network.client[4] 	hdistance[4] 	2.2137198897678
scalar abilene_cost_network.client[4] 	downloads[4] 	179258
scalar abilene_cost_network.client[4] 	avg_time[4] 	0.009097894366
scalar abilene_cost_network.client[4] 	interests_sent[4] 	179273
scalar abilene_cost_network.client[6] 	hdistance[6] 	2.5356337330074
scalar abilene_cost_network.client[6] 	downloads[6] 	179563
scalar abilene_cost_network.client[6] 	avg_time[6] 	0.013238272017
scalar abilene_cost_network.client[6] 	interests_sent[6] 	179584
