version 2
run General-3-20140902-16:17:12-17262
attr D fix0.01
attr F nrr
attr R lru
attr a 1
attr configname General
attr csize 1e3
attr ctlg 1e5
attr datetime 20140902-16:17:12
attr experiment General
attr inifile omnetpp.ini
attr iterationvars "$net=abilene_cost, $rep=6, $priceratiovalue=10, $weights=0.333_0.333_0.334, $lambda=100, $a=1, $ctlg=1e5, $F=nrr, $ttl=10, $D=fix0.01, $xi=1, $R=lru, $csize=1e3, $pricebits=0, $window=60, $variance=0.05, $mytime=1800"
attr iterationvars2 "$net=abilene_cost, $rep=6, $priceratiovalue=10, $weights=0.333_0.333_0.334, $lambda=100, $a=1, $ctlg=1e5, $F=nrr, $ttl=10, $D=fix0.01, $xi=1, $R=lru, $csize=1e3, $pricebits=0, $window=60, $variance=0.05, $mytime=1800, $repetition=0"
attr lambda 100
attr measurement "$net=abilene_cost, $rep=6, $priceratiovalue=10, $weights=0.333_0.333_0.334, $lambda=100, $a=1, $ctlg=1e5, $F=nrr, $ttl=10, $D=fix0.01, $xi=1, $R=lru, $csize=1e3, $pricebits=0, $window=60, $variance=0.05, $mytime=1800"
attr mytime 1800
attr net abilene_cost
attr network networks.${net=abilene_cost}_network
attr pricebits 0
attr priceratiovalue 10
attr processid 17262
attr rep 6
attr repetition 0
attr replication #0
attr resultdir results
attr runnumber 3
attr seedset 6
attr ttl 10
attr variance 0.05
attr weights 0.333_0.333_0.334
attr window 60
attr xi 1

scalar . 	a 	1
scalar . 	csize 	1e3
scalar . 	ctlg 	1e5
scalar . 	lambda 	100
scalar . 	mytime 	1800
scalar . 	pricebits 	0
scalar . 	priceratiovalue 	10
scalar . 	rep 	6
scalar . 	ttl 	10
scalar . 	variance 	0.05
scalar . 	window 	60
scalar . 	xi 	1
scalar abilene_cost_network.content_distribution 	repo-0 	5
scalar abilene_cost_network.content_distribution 	repo-1 	2
scalar abilene_cost_network.content_distribution 	repo-2 	8
scalar abilene_cost_network.content_distribution 	client-0 	4
scalar abilene_cost_network.content_distribution 	client-1 	10
scalar abilene_cost_network.content_distribution 	client-2 	2
scalar abilene_cost_network.content_distribution 	repo-0_card 	33434
scalar abilene_cost_network.content_distribution 	repo-0_price 	1
scalar abilene_cost_network.content_distribution 	repo-1_card 	33143
scalar abilene_cost_network.content_distribution 	repo-1_price 	10
scalar abilene_cost_network.content_distribution 	repo-2_card 	33423
scalar abilene_cost_network.content_distribution 	repo-2_price 	0
scalar abilene_cost_network.statistics 	repo_popularity[0] 	0.41241466788296
scalar abilene_cost_network.statistics 	repo_popularity[1] 	0.27822505478955
scalar abilene_cost_network.statistics 	repo_popularity[2] 	0.3093602773275
scalar abilene_cost_network.statistics 	stabilization_time 	36060
scalar abilene_cost_network.statistics 	p_hit 	0.22284961510034
scalar abilene_cost_network.statistics 	interests 	108481.63636364
scalar abilene_cost_network.statistics 	data 	59388.363636364
scalar abilene_cost_network.statistics 	hdistance 	1.717912346433
scalar abilene_cost_network.statistics 	avg_time 	0.007152026657
scalar abilene_cost_network.statistics 	downloads 	539961
scalar abilene_cost_network.statistics 	total_cost 	1126781
scalar abilene_cost_network.statistics 	total_replicas 	100000
scalar abilene_cost_network.statistics 	inner_hit 	0.49251890414308
scalar abilene_cost_network.statistics 	interests_sent 	540026
scalar abilene_cost_network.node[0].core_layer 	interests[0] 	0
scalar abilene_cost_network.node[0].core_layer 	data[0] 	0
scalar abilene_cost_network.node[0].core_layer 	repo_int[0] 	274020
scalar abilene_cost_network.node[0].content_store 	p_hit[0] 	-nan
scalar abilene_cost_network.node[0].content_store 	hits[0] 	0
scalar abilene_cost_network.node[0].content_store 	misses[0] 	0
scalar abilene_cost_network.node[0].content_store 	decision_yes[0] 	0
scalar abilene_cost_network.node[0].content_store 	decision_no[0] 	0
scalar abilene_cost_network.node[0].content_store 	decision_ratio[0] 	0
scalar abilene_cost_network.node[1].core_layer 	interests[1] 	86553
scalar abilene_cost_network.node[1].core_layer 	data[1] 	69401
scalar abilene_cost_network.node[1].content_store 	p_hit[1] 	0.19815604311809
scalar abilene_cost_network.node[1].content_store 	hits[1] 	17151
scalar abilene_cost_network.node[1].content_store 	misses[1] 	69402
scalar abilene_cost_network.node[1].content_store 	decision_yes[1] 	677
scalar abilene_cost_network.node[1].content_store 	decision_no[1] 	68724
scalar abilene_cost_network.node[1].content_store 	decision_ratio[1] 	0.0097549026671085
scalar abilene_cost_network.node[2].core_layer 	interests[2] 	318842
scalar abilene_cost_network.node[2].core_layer 	repo_load[2] 	103963
scalar abilene_cost_network.node[2].core_layer 	data[2] 	142092
scalar abilene_cost_network.node[2].content_store 	p_hit[2] 	0.22820393800064
scalar abilene_cost_network.node[2].content_store 	hits[2] 	72761
scalar abilene_cost_network.node[2].content_store 	misses[2] 	246081
scalar abilene_cost_network.node[2].content_store 	decision_yes[2] 	2547
scalar abilene_cost_network.node[2].content_store 	decision_no[2] 	243508
scalar abilene_cost_network.node[2].content_store 	decision_ratio[2] 	0.01035134421166
scalar abilene_cost_network.node[3].core_layer 	interests[3] 	146867
scalar abilene_cost_network.node[3].core_layer 	data[3] 	132892
scalar abilene_cost_network.node[3].content_store 	p_hit[3] 	0.095154119032866
scalar abilene_cost_network.node[3].content_store 	hits[3] 	13975
scalar abilene_cost_network.node[3].content_store 	misses[3] 	132892
scalar abilene_cost_network.node[3].content_store 	decision_yes[3] 	1393
scalar abilene_cost_network.node[3].content_store 	decision_no[3] 	131499
scalar abilene_cost_network.node[3].content_store 	decision_ratio[3] 	0.010482196068988
scalar abilene_cost_network.node[4].core_layer 	interests[4] 	242167
scalar abilene_cost_network.node[4].core_layer 	data[4] 	171638
scalar abilene_cost_network.node[4].content_store 	p_hit[4] 	0.29117096879426
scalar abilene_cost_network.node[4].content_store 	hits[4] 	70512
scalar abilene_cost_network.node[4].content_store 	misses[4] 	171655
scalar abilene_cost_network.node[4].content_store 	decision_yes[4] 	1694
scalar abilene_cost_network.node[4].content_store 	decision_no[4] 	169944
scalar abilene_cost_network.node[4].content_store 	decision_ratio[4] 	0.0098696092939792
scalar abilene_cost_network.node[5].core_layer 	interests[5] 	94273
scalar abilene_cost_network.node[5].core_layer 	repo_load[5] 	87151
scalar abilene_cost_network.node[5].core_layer 	data[5] 	0
scalar abilene_cost_network.node[5].content_store 	p_hit[5] 	0.075546550974298
scalar abilene_cost_network.node[5].content_store 	hits[5] 	7122
scalar abilene_cost_network.node[5].content_store 	misses[5] 	87151
scalar abilene_cost_network.node[5].content_store 	decision_yes[5] 	880
scalar abilene_cost_network.node[5].content_store 	decision_no[5] 	86271
scalar abilene_cost_network.node[5].content_store 	decision_ratio[5] 	0.010097417126596
scalar abilene_cost_network.node[6].core_layer 	interests[6] 	0
scalar abilene_cost_network.node[6].core_layer 	data[6] 	0
scalar abilene_cost_network.node[6].content_store 	p_hit[6] 	-nan
scalar abilene_cost_network.node[6].content_store 	hits[6] 	0
scalar abilene_cost_network.node[6].content_store 	misses[6] 	0
scalar abilene_cost_network.node[6].content_store 	decision_yes[6] 	0
scalar abilene_cost_network.node[6].content_store 	decision_no[6] 	0
scalar abilene_cost_network.node[6].content_store 	decision_ratio[6] 	0
scalar abilene_cost_network.node[7].core_layer 	interests[7] 	0
scalar abilene_cost_network.node[7].core_layer 	data[7] 	0
scalar abilene_cost_network.node[7].content_store 	p_hit[7] 	-nan
scalar abilene_cost_network.node[7].content_store 	hits[7] 	0
scalar abilene_cost_network.node[7].content_store 	misses[7] 	0
scalar abilene_cost_network.node[7].content_store 	decision_yes[7] 	0
scalar abilene_cost_network.node[7].content_store 	decision_no[7] 	0
scalar abilene_cost_network.node[7].content_store 	decision_ratio[7] 	0
scalar abilene_cost_network.node[8].core_layer 	interests[8] 	91084
scalar abilene_cost_network.node[8].core_layer 	repo_load[8] 	82906
scalar abilene_cost_network.node[8].core_layer 	data[8] 	0
scalar abilene_cost_network.node[8].content_store 	p_hit[8] 	0.089785253172895
scalar abilene_cost_network.node[8].content_store 	hits[8] 	8178
scalar abilene_cost_network.node[8].content_store 	misses[8] 	82906
scalar abilene_cost_network.node[8].content_store 	decision_yes[8] 	824
scalar abilene_cost_network.node[8].content_store 	decision_no[8] 	82082
scalar abilene_cost_network.node[8].content_store 	decision_ratio[8] 	0.0099389670228934
scalar abilene_cost_network.node[9].core_layer 	interests[9] 	32201
scalar abilene_cost_network.node[9].core_layer 	data[9] 	28326
scalar abilene_cost_network.node[9].content_store 	p_hit[9] 	0.12036893264184
scalar abilene_cost_network.node[9].content_store 	hits[9] 	3876
scalar abilene_cost_network.node[9].content_store 	misses[9] 	28325
scalar abilene_cost_network.node[9].content_store 	decision_yes[9] 	273
scalar abilene_cost_network.node[9].content_store 	decision_no[9] 	28053
scalar abilene_cost_network.node[9].content_store 	decision_ratio[9] 	0.0096377886041093
scalar abilene_cost_network.node[10].core_layer 	interests[10] 	181311
scalar abilene_cost_network.node[10].core_layer 	data[10] 	108923
scalar abilene_cost_network.node[10].content_store 	p_hit[10] 	0.39904363221206
scalar abilene_cost_network.node[10].content_store 	hits[10] 	72351
scalar abilene_cost_network.node[10].content_store 	misses[10] 	108960
scalar abilene_cost_network.node[10].content_store 	decision_yes[10] 	1100
scalar abilene_cost_network.node[10].content_store 	decision_no[10] 	107823
scalar abilene_cost_network.node[10].content_store 	decision_ratio[10] 	0.010098877188473
scalar abilene_cost_network.client[2] 	hdistance[2] 	1.299992238091
scalar abilene_cost_network.client[2] 	downloads[2] 	180368
scalar abilene_cost_network.client[2] 	avg_time[2] 	0.004156832657
scalar abilene_cost_network.client[2] 	interests_sent[2] 	180384
scalar abilene_cost_network.client[4] 	hdistance[4] 	1.7109751081168
scalar abilene_cost_network.client[4] 	downloads[4] 	179898
scalar abilene_cost_network.client[4] 	avg_time[4] 	0.00538660118
scalar abilene_cost_network.client[4] 	interests_sent[4] 	179910
scalar abilene_cost_network.client[10] 	hdistance[10] 	2.142769693091
scalar abilene_cost_network.client[10] 	downloads[10] 	179695
scalar abilene_cost_network.client[10] 	avg_time[10] 	0.011912646134
scalar abilene_cost_network.client[10] 	interests_sent[10] 	179732
