version 2
run General-7-20140902-16:25:57-17285
attr D fix0.01
attr F nrr
attr R lru
attr a 1
attr configname General
attr csize 1e3
attr ctlg 1e5
attr datetime 20140902-16:25:57
attr experiment General
attr inifile omnetpp.ini
attr iterationvars "$net=abilene_cost, $rep=7, $priceratiovalue=10, $weights=0.333_0.333_0.334, $lambda=100, $a=1, $ctlg=1e5, $F=nrr, $ttl=10, $D=fix0.01, $xi=1, $R=lru, $csize=1e3, $pricebits=0, $window=60, $variance=0.05, $mytime=1800"
attr iterationvars2 "$net=abilene_cost, $rep=7, $priceratiovalue=10, $weights=0.333_0.333_0.334, $lambda=100, $a=1, $ctlg=1e5, $F=nrr, $ttl=10, $D=fix0.01, $xi=1, $R=lru, $csize=1e3, $pricebits=0, $window=60, $variance=0.05, $mytime=1800, $repetition=0"
attr lambda 100
attr measurement "$net=abilene_cost, $rep=7, $priceratiovalue=10, $weights=0.333_0.333_0.334, $lambda=100, $a=1, $ctlg=1e5, $F=nrr, $ttl=10, $D=fix0.01, $xi=1, $R=lru, $csize=1e3, $pricebits=0, $window=60, $variance=0.05, $mytime=1800"
attr mytime 1800
attr net abilene_cost
attr network networks.${net=abilene_cost}_network
attr pricebits 0
attr priceratiovalue 10
attr processid 17285
attr rep 7
attr repetition 0
attr replication #0
attr resultdir results
attr runnumber 7
attr seedset 7
attr ttl 10
attr variance 0.05
attr weights 0.333_0.333_0.334
attr window 60
attr xi 1

scalar . 	a 	1
scalar . 	csize 	1e3
scalar . 	ctlg 	1e5
scalar . 	lambda 	100
scalar . 	mytime 	1800
scalar . 	pricebits 	0
scalar . 	priceratiovalue 	10
scalar . 	rep 	7
scalar . 	ttl 	10
scalar . 	variance 	0.05
scalar . 	window 	60
scalar . 	xi 	1
scalar abilene_cost_network.content_distribution 	repo-0 	5
scalar abilene_cost_network.content_distribution 	repo-1 	4
scalar abilene_cost_network.content_distribution 	repo-2 	0
scalar abilene_cost_network.content_distribution 	client-0 	6
scalar abilene_cost_network.content_distribution 	client-1 	4
scalar abilene_cost_network.content_distribution 	client-2 	8
scalar abilene_cost_network.content_distribution 	repo-0_card 	33104
scalar abilene_cost_network.content_distribution 	repo-0_price 	10
scalar abilene_cost_network.content_distribution 	repo-1_card 	33509
scalar abilene_cost_network.content_distribution 	repo-1_price 	0
scalar abilene_cost_network.content_distribution 	repo-2_card 	33387
scalar abilene_cost_network.content_distribution 	repo-2_price 	1
scalar abilene_cost_network.statistics 	repo_popularity[0] 	0.32830784336445
scalar abilene_cost_network.statistics 	repo_popularity[1] 	0.32988541312008
scalar abilene_cost_network.statistics 	repo_popularity[2] 	0.34180674351549
scalar abilene_cost_network.statistics 	stabilization_time 	36060
scalar abilene_cost_network.statistics 	p_hit 	0.21956114826752
scalar abilene_cost_network.statistics 	interests 	114911.45454545
scalar abilene_cost_network.statistics 	data 	65847.454545455
scalar abilene_cost_network.statistics 	hdistance 	1.8270152398289
scalar abilene_cost_network.statistics 	avg_time 	0.007650578955
scalar abilene_cost_network.statistics 	downloads 	539663
scalar abilene_cost_network.statistics 	total_cost 	963063
scalar abilene_cost_network.statistics 	total_replicas 	100000
scalar abilene_cost_network.statistics 	inner_hit 	0.51428762023707
scalar abilene_cost_network.statistics 	interests_sent 	539709
scalar abilene_cost_network.node[0].core_layer 	interests[0] 	79173
scalar abilene_cost_network.node[0].core_layer 	repo_load[0] 	76193
scalar abilene_cost_network.node[0].core_layer 	data[0] 	0
scalar abilene_cost_network.node[0].core_layer 	repo_int[0] 	262121
scalar abilene_cost_network.node[0].content_store 	p_hit[0] 	0.037639094135627
scalar abilene_cost_network.node[0].content_store 	hits[0] 	2980
scalar abilene_cost_network.node[0].content_store 	misses[0] 	76193
scalar abilene_cost_network.node[0].content_store 	decision_yes[0] 	762
scalar abilene_cost_network.node[0].content_store 	decision_no[0] 	75431
scalar abilene_cost_network.node[0].content_store 	decision_ratio[0] 	0.010000918719567
scalar abilene_cost_network.node[1].core_layer 	interests[1] 	83188
scalar abilene_cost_network.node[1].core_layer 	data[1] 	79174
scalar abilene_cost_network.node[1].content_store 	p_hit[1] 	0.048264172717219
scalar abilene_cost_network.node[1].content_store 	hits[1] 	4015
scalar abilene_cost_network.node[1].content_store 	misses[1] 	79173
scalar abilene_cost_network.node[1].content_store 	decision_yes[1] 	798
scalar abilene_cost_network.node[1].content_store 	decision_no[1] 	78376
scalar abilene_cost_network.node[1].content_store 	decision_ratio[1] 	0.010079066360169
scalar abilene_cost_network.node[2].core_layer 	interests[2] 	125619
scalar abilene_cost_network.node[2].core_layer 	data[2] 	117720
scalar abilene_cost_network.node[2].content_store 	p_hit[2] 	0.062840812297503
scalar abilene_cost_network.node[2].content_store 	hits[2] 	7894
scalar abilene_cost_network.node[2].content_store 	misses[2] 	117725
scalar abilene_cost_network.node[2].content_store 	decision_yes[2] 	1175
scalar abilene_cost_network.node[2].content_store 	decision_no[2] 	116545
scalar abilene_cost_network.node[2].content_store 	decision_ratio[2] 	0.0099813115868162
scalar abilene_cost_network.node[3].core_layer 	interests[3] 	106778
scalar abilene_cost_network.node[3].core_layer 	data[3] 	95375
scalar abilene_cost_network.node[3].content_store 	p_hit[3] 	0.10678229597857
scalar abilene_cost_network.node[3].content_store 	hits[3] 	11402
scalar abilene_cost_network.node[3].content_store 	misses[3] 	95376
scalar abilene_cost_network.node[3].content_store 	decision_yes[3] 	924
scalar abilene_cost_network.node[3].content_store 	decision_no[3] 	94451
scalar abilene_cost_network.node[3].content_store 	decision_ratio[3] 	0.0096880733944954
scalar abilene_cost_network.node[4].core_layer 	interests[4] 	242264
scalar abilene_cost_network.node[4].core_layer 	repo_load[4] 	97241
scalar abilene_cost_network.node[4].core_layer 	data[4] 	74539
scalar abilene_cost_network.node[4].content_store 	p_hit[4] 	0.29089340554106
scalar abilene_cost_network.node[4].content_store 	hits[4] 	70473
scalar abilene_cost_network.node[4].content_store 	misses[4] 	171791
scalar abilene_cost_network.node[4].content_store 	decision_yes[4] 	1689
scalar abilene_cost_network.node[4].content_store 	decision_no[4] 	170091
scalar abilene_cost_network.node[4].content_store 	decision_ratio[4] 	0.0098323436954244
scalar abilene_cost_network.node[5].core_layer 	interests[5] 	134517
scalar abilene_cost_network.node[5].core_layer 	repo_load[5] 	88687
scalar abilene_cost_network.node[5].core_layer 	data[5] 	33447
scalar abilene_cost_network.node[5].content_store 	p_hit[5] 	0.092055279258384
scalar abilene_cost_network.node[5].content_store 	hits[5] 	12383
scalar abilene_cost_network.node[5].content_store 	misses[5] 	122134
scalar abilene_cost_network.node[5].content_store 	decision_yes[5] 	1234
scalar abilene_cost_network.node[5].content_store 	decision_no[5] 	120900
scalar abilene_cost_network.node[5].content_store 	decision_ratio[5] 	0.010103656639429
scalar abilene_cost_network.node[6].core_layer 	interests[6] 	216756
scalar abilene_cost_network.node[6].core_layer 	data[6] 	142951
scalar abilene_cost_network.node[6].content_store 	p_hit[6] 	0.34043348281016
scalar abilene_cost_network.node[6].content_store 	hits[6] 	73791
scalar abilene_cost_network.node[6].content_store 	misses[6] 	142965
scalar abilene_cost_network.node[6].content_store 	decision_yes[6] 	1418
scalar abilene_cost_network.node[6].content_store 	decision_no[6] 	141533
scalar abilene_cost_network.node[6].content_store 	decision_ratio[6] 	0.0099194828997349
scalar abilene_cost_network.node[7].core_layer 	interests[7] 	93264
scalar abilene_cost_network.node[7].core_layer 	data[7] 	70811
scalar abilene_cost_network.node[7].content_store 	p_hit[7] 	0.24074669754675
scalar abilene_cost_network.node[7].content_store 	hits[7] 	22453
scalar abilene_cost_network.node[7].content_store 	misses[7] 	70811
scalar abilene_cost_network.node[7].content_store 	decision_yes[7] 	703
scalar abilene_cost_network.node[7].content_store 	decision_no[7] 	70108
scalar abilene_cost_network.node[7].content_store 	decision_ratio[7] 	0.009927836070667
scalar abilene_cost_network.node[8].core_layer 	interests[8] 	182467
scalar abilene_cost_network.node[8].core_layer 	data[8] 	110305
scalar abilene_cost_network.node[8].content_store 	p_hit[8] 	0.39535916083456
scalar abilene_cost_network.node[8].content_store 	hits[8] 	72140
scalar abilene_cost_network.node[8].content_store 	misses[8] 	110327
scalar abilene_cost_network.node[8].content_store 	decision_yes[8] 	1118
scalar abilene_cost_network.node[8].content_store 	decision_no[8] 	109187
scalar abilene_cost_network.node[8].content_store 	decision_ratio[8] 	0.010135533294048
scalar abilene_cost_network.node[9].core_layer 	interests[9] 	0
scalar abilene_cost_network.node[9].core_layer 	data[9] 	0
scalar abilene_cost_network.node[9].content_store 	p_hit[9] 	-nan
scalar abilene_cost_network.node[9].content_store 	hits[9] 	0
scalar abilene_cost_network.node[9].content_store 	misses[9] 	0
scalar abilene_cost_network.node[9].content_store 	decision_yes[9] 	0
scalar abilene_cost_network.node[9].content_store 	decision_no[9] 	0
scalar abilene_cost_network.node[9].content_store 	decision_ratio[9] 	0
scalar abilene_cost_network.node[10].core_layer 	interests[10] 	0
scalar abilene_cost_network.node[10].core_layer 	data[10] 	0
scalar abilene_cost_network.node[10].content_store 	p_hit[10] 	-nan
scalar abilene_cost_network.node[10].content_store 	hits[10] 	0
scalar abilene_cost_network.node[10].content_store 	misses[10] 	0
scalar abilene_cost_network.node[10].content_store 	decision_yes[10] 	0
scalar abilene_cost_network.node[10].content_store 	decision_no[10] 	0
scalar abilene_cost_network.node[10].content_store 	decision_ratio[10] 	0
scalar abilene_cost_network.client[4] 	hdistance[4] 	1.4254703813299
scalar abilene_cost_network.client[4] 	downloads[4] 	179110
scalar abilene_cost_network.client[4] 	avg_time[4] 	0.005366012683
scalar abilene_cost_network.client[4] 	interests_sent[4] 	179121
scalar abilene_cost_network.client[6] 	hdistance[6] 	1.934097723487
scalar abilene_cost_network.client[6] 	downloads[6] 	180100
scalar abilene_cost_network.client[6] 	avg_time[6] 	0.00789379643
scalar abilene_cost_network.client[6] 	interests_sent[6] 	180113
scalar abilene_cost_network.client[8] 	hdistance[8] 	2.1214776146697
scalar abilene_cost_network.client[8] 	downloads[8] 	180453
scalar abilene_cost_network.client[8] 	avg_time[8] 	0.009691927752
scalar abilene_cost_network.client[8] 	interests_sent[8] 	180475
