version 2
run General-8-20141007-11:46:30-22081
attr D fix0.005
attr F spr
attr R lru
attr a 1
attr configname General
attr csize 1e3
attr ctlg 1e5
attr datetime 20141007-11:46:30
attr experiment General
attr inifile omnetpp.ini
attr iterationvars "$net=abilene_cost, $rep=3, $priceratiovalue=10, $weights=0.333_0.333_0.334, $lambda=100, $a=1, $ctlg=1e5, $F=spr, $ttl=10, $D=fix0.005, $xi=1, $R=lru, $csize=1e3, $pricebits=0, $window=60, $variance=0.05, $mytime=1800"
attr iterationvars2 "$net=abilene_cost, $rep=3, $priceratiovalue=10, $weights=0.333_0.333_0.334, $lambda=100, $a=1, $ctlg=1e5, $F=spr, $ttl=10, $D=fix0.005, $xi=1, $R=lru, $csize=1e3, $pricebits=0, $window=60, $variance=0.05, $mytime=1800, $repetition=0"
attr lambda 100
attr measurement "$net=abilene_cost, $rep=3, $priceratiovalue=10, $weights=0.333_0.333_0.334, $lambda=100, $a=1, $ctlg=1e5, $F=spr, $ttl=10, $D=fix0.005, $xi=1, $R=lru, $csize=1e3, $pricebits=0, $window=60, $variance=0.05, $mytime=1800"
attr mytime 1800
attr net abilene_cost
attr network networks.${net=abilene_cost,geant_cost}_network
attr pricebits 0
attr priceratiovalue 10
attr processid 22081
attr rep 3
attr repetition 0
attr replication #0
attr resultdir results
attr runnumber 8
attr seedset 3
attr ttl 10
attr variance 0.05
attr weights 0.333_0.333_0.334
attr window 60
attr xi 1

scalar . 	a 	1
scalar . 	csize 	1e3
scalar . 	ctlg 	1e5
scalar . 	lambda 	100
scalar . 	mytime 	1800
scalar . 	pricebits 	0
scalar . 	priceratiovalue 	10
scalar . 	rep 	3
scalar . 	ttl 	10
scalar . 	variance 	0.05
scalar . 	window 	60
scalar . 	xi 	1
scalar abilene_cost_network.content_distribution 	repo-0 	9
scalar abilene_cost_network.content_distribution 	repo-1 	4
scalar abilene_cost_network.content_distribution 	repo-2 	0
scalar abilene_cost_network.content_distribution 	client-0 	9
scalar abilene_cost_network.content_distribution 	client-1 	0
scalar abilene_cost_network.content_distribution 	client-2 	1
scalar abilene_cost_network.content_distribution 	repo-0_card 	33498
scalar abilene_cost_network.content_distribution 	repo-0_price 	0
scalar abilene_cost_network.content_distribution 	repo-1_card 	33168
scalar abilene_cost_network.content_distribution 	repo-1_price 	10
scalar abilene_cost_network.content_distribution 	repo-2_card 	33334
scalar abilene_cost_network.content_distribution 	repo-2_price 	1
scalar abilene_cost_network.statistics 	repo_popularity[0] 	0.34820484875244
scalar abilene_cost_network.statistics 	repo_popularity[1] 	0.25519349814637
scalar abilene_cost_network.statistics 	repo_popularity[2] 	0.3966016531012
scalar abilene_cost_network.statistics 	stabilization_time 	36060
scalar abilene_cost_network.statistics 	p_hit 	0.23720281282382
scalar abilene_cost_network.statistics 	interests 	102556.27272727
scalar abilene_cost_network.statistics 	data 	53557.181818182
scalar abilene_cost_network.statistics 	hdistance 	1.5967017811708
scalar abilene_cost_network.statistics 	avg_time 	0.007083721525
scalar abilene_cost_network.statistics 	downloads 	538910
scalar abilene_cost_network.statistics 	total_cost 	862749
scalar abilene_cost_network.statistics 	total_replicas 	100000
scalar abilene_cost_network.statistics 	inner_hit 	0.49656343359745
scalar abilene_cost_network.node[0].core_layer 	interests[0] 	247670
scalar abilene_cost_network.node[0].core_layer 	repo_load[0] 	96079
scalar abilene_cost_network.node[0].core_layer 	data[0] 	77070
scalar abilene_cost_network.node[0].core_layer 	repo_int[0] 	271307
scalar abilene_cost_network.node[0].content_store 	p_hit[0] 	0.30076714983648
scalar abilene_cost_network.node[0].content_store 	hits[0] 	74491
scalar abilene_cost_network.node[0].content_store 	misses[0] 	173179
scalar abilene_cost_network.node[0].content_store 	decision_yes[0] 	872
scalar abilene_cost_network.node[0].content_store 	decision_no[0] 	172277
scalar abilene_cost_network.node[0].content_store 	decision_ratio[0] 	0.0050361249559628
scalar abilene_cost_network.node[1].core_layer 	interests[1] 	217966
scalar abilene_cost_network.node[1].core_layer 	data[1] 	143216
scalar abilene_cost_network.node[1].content_store 	p_hit[1] 	0.34277364359579
scalar abilene_cost_network.node[1].content_store 	hits[1] 	74713
scalar abilene_cost_network.node[1].content_store 	misses[1] 	143253
scalar abilene_cost_network.node[1].content_store 	decision_yes[1] 	746
scalar abilene_cost_network.node[1].content_store 	decision_no[1] 	142470
scalar abilene_cost_network.node[1].content_store 	decision_ratio[1] 	0.005208915205005
scalar abilene_cost_network.node[2].core_layer 	interests[2] 	99798
scalar abilene_cost_network.node[2].core_layer 	data[2] 	87812
scalar abilene_cost_network.node[2].content_store 	p_hit[2] 	0.12009258702579
scalar abilene_cost_network.node[2].content_store 	hits[2] 	11985
scalar abilene_cost_network.node[2].content_store 	misses[2] 	87813
scalar abilene_cost_network.node[2].content_store 	decision_yes[2] 	431
scalar abilene_cost_network.node[2].content_store 	decision_no[2] 	87381
scalar abilene_cost_network.node[2].content_store 	decision_ratio[2] 	0.0049082130005011
scalar abilene_cost_network.node[3].core_layer 	interests[3] 	87812
scalar abilene_cost_network.node[3].core_layer 	data[3] 	80778
scalar abilene_cost_network.node[3].content_store 	p_hit[3] 	0.080114335170592
scalar abilene_cost_network.node[3].content_store 	hits[3] 	7035
scalar abilene_cost_network.node[3].content_store 	misses[3] 	80777
scalar abilene_cost_network.node[3].content_store 	decision_yes[3] 	410
scalar abilene_cost_network.node[3].content_store 	decision_no[3] 	80368
scalar abilene_cost_network.node[3].content_store 	decision_ratio[3] 	0.0050756394067692
scalar abilene_cost_network.node[4].core_layer 	interests[4] 	80778
scalar abilene_cost_network.node[4].core_layer 	repo_load[4] 	76667
scalar abilene_cost_network.node[4].core_layer 	data[4] 	0
scalar abilene_cost_network.node[4].content_store 	p_hit[4] 	0.050892569759093
scalar abilene_cost_network.node[4].content_store 	hits[4] 	4111
scalar abilene_cost_network.node[4].content_store 	misses[4] 	76667
scalar abilene_cost_network.node[4].content_store 	decision_yes[4] 	399
scalar abilene_cost_network.node[4].content_store 	decision_no[4] 	76268
scalar abilene_cost_network.node[4].content_store 	decision_ratio[4] 	0.0052043251985861
scalar abilene_cost_network.node[5].core_layer 	interests[5] 	0
scalar abilene_cost_network.node[5].core_layer 	data[5] 	0
scalar abilene_cost_network.node[5].content_store 	p_hit[5] 	-nan
scalar abilene_cost_network.node[5].content_store 	hits[5] 	0
scalar abilene_cost_network.node[5].content_store 	misses[5] 	0
scalar abilene_cost_network.node[5].content_store 	decision_yes[5] 	0
scalar abilene_cost_network.node[5].content_store 	decision_no[5] 	0
scalar abilene_cost_network.node[5].content_store 	decision_ratio[5] 	0
scalar abilene_cost_network.node[6].core_layer 	interests[6] 	0
scalar abilene_cost_network.node[6].core_layer 	data[6] 	0
scalar abilene_cost_network.node[6].content_store 	p_hit[6] 	-nan
scalar abilene_cost_network.node[6].content_store 	hits[6] 	0
scalar abilene_cost_network.node[6].content_store 	misses[6] 	0
scalar abilene_cost_network.node[6].content_store 	decision_yes[6] 	0
scalar abilene_cost_network.node[6].content_store 	decision_no[6] 	0
scalar abilene_cost_network.node[6].content_store 	decision_ratio[6] 	0
scalar abilene_cost_network.node[7].core_layer 	interests[7] 	0
scalar abilene_cost_network.node[7].core_layer 	data[7] 	0
scalar abilene_cost_network.node[7].content_store 	p_hit[7] 	-nan
scalar abilene_cost_network.node[7].content_store 	hits[7] 	0
scalar abilene_cost_network.node[7].content_store 	misses[7] 	0
scalar abilene_cost_network.node[7].content_store 	decision_yes[7] 	0
scalar abilene_cost_network.node[7].content_store 	decision_no[7] 	0
scalar abilene_cost_network.node[7].content_store 	decision_ratio[7] 	0
scalar abilene_cost_network.node[8].core_layer 	interests[8] 	37144
scalar abilene_cost_network.node[8].core_layer 	data[8] 	30355
scalar abilene_cost_network.node[8].content_store 	p_hit[8] 	0.18277514538014
scalar abilene_cost_network.node[8].content_store 	hits[8] 	6789
scalar abilene_cost_network.node[8].content_store 	misses[8] 	30355
scalar abilene_cost_network.node[8].content_store 	decision_yes[8] 	149
scalar abilene_cost_network.node[8].content_store 	decision_no[8] 	30206
scalar abilene_cost_network.node[8].content_store 	decision_ratio[8] 	0.0049085817822435
scalar abilene_cost_network.node[9].core_layer 	interests[9] 	244169
scalar abilene_cost_network.node[9].core_layer 	repo_load[9] 	98561
scalar abilene_cost_network.node[9].core_layer 	data[9] 	72252
scalar abilene_cost_network.node[9].content_store 	p_hit[9] 	0.30034934819736
scalar abilene_cost_network.node[9].content_store 	hits[9] 	73336
scalar abilene_cost_network.node[9].content_store 	misses[9] 	170833
scalar abilene_cost_network.node[9].content_store 	decision_yes[9] 	824
scalar abilene_cost_network.node[9].content_store 	decision_no[9] 	169989
scalar abilene_cost_network.node[9].content_store 	decision_ratio[9] 	0.0048239888064726
scalar abilene_cost_network.node[10].core_layer 	interests[10] 	112782
scalar abilene_cost_network.node[10].core_layer 	data[10] 	97646
scalar abilene_cost_network.node[10].content_store 	p_hit[10] 	0.13417921299498
scalar abilene_cost_network.node[10].content_store 	hits[10] 	15133
scalar abilene_cost_network.node[10].content_store 	misses[10] 	97649
scalar abilene_cost_network.node[10].content_store 	decision_yes[10] 	511
scalar abilene_cost_network.node[10].content_store 	decision_no[10] 	97135
scalar abilene_cost_network.node[10].content_store 	decision_ratio[10] 	0.0052331892755464
scalar abilene_cost_network.client[0] 	hdistance[0] 	1.6133067622333
scalar abilene_cost_network.client[0] 	downloads[0] 	179142
scalar abilene_cost_network.client[0] 	avg_time[0] 	0.006801520342
scalar abilene_cost_network.client[1] 	hdistance[1] 	1.6037588837996
scalar abilene_cost_network.client[1] 	downloads[1] 	179681
scalar abilene_cost_network.client[1] 	avg_time[1] 	0.00716947561
scalar abilene_cost_network.client[9] 	hdistance[9] 	1.5730396974795
scalar abilene_cost_network.client[9] 	downloads[9] 	180087
scalar abilene_cost_network.client[9] 	avg_time[9] 	0.007280168623
