version 2
run General-8-20141007-11:20:15-15333
attr D fix0.005
attr F spr
attr R lru
attr a 1
attr configname General
attr csize 1e3
attr ctlg 1e5
attr datetime 20141007-11:20:15
attr experiment General
attr inifile omnetpp.ini
attr iterationvars "$net=abilene_cost, $rep=2, $priceratiovalue=10, $weights=0.333_0.333_0.334, $lambda=100, $a=1, $ctlg=1e5, $F=spr, $ttl=10, $D=fix0.005, $xi=1, $R=lru, $csize=1e3, $pricebits=0, $window=60, $variance=0.05, $mytime=1800"
attr iterationvars2 "$net=abilene_cost, $rep=2, $priceratiovalue=10, $weights=0.333_0.333_0.334, $lambda=100, $a=1, $ctlg=1e5, $F=spr, $ttl=10, $D=fix0.005, $xi=1, $R=lru, $csize=1e3, $pricebits=0, $window=60, $variance=0.05, $mytime=1800, $repetition=0"
attr lambda 100
attr measurement "$net=abilene_cost, $rep=2, $priceratiovalue=10, $weights=0.333_0.333_0.334, $lambda=100, $a=1, $ctlg=1e5, $F=spr, $ttl=10, $D=fix0.005, $xi=1, $R=lru, $csize=1e3, $pricebits=0, $window=60, $variance=0.05, $mytime=1800"
attr mytime 1800
attr net abilene_cost
attr network networks.${net=abilene_cost,geant_cost}_network
attr pricebits 0
attr priceratiovalue 10
attr processid 15333
attr rep 2
attr repetition 0
attr replication #0
attr resultdir results
attr runnumber 8
attr seedset 2
attr ttl 10
attr variance 0.05
attr weights 0.333_0.333_0.334
attr window 60
attr xi 1

scalar . 	a 	1
scalar . 	csize 	1e3
scalar . 	ctlg 	1e5
scalar . 	lambda 	100
scalar . 	mytime 	1800
scalar . 	pricebits 	0
scalar . 	priceratiovalue 	10
scalar . 	rep 	2
scalar . 	ttl 	10
scalar . 	variance 	0.05
scalar . 	window 	60
scalar . 	xi 	1
scalar abilene_cost_network.content_distribution 	repo-0 	4
scalar abilene_cost_network.content_distribution 	repo-1 	9
scalar abilene_cost_network.content_distribution 	repo-2 	6
scalar abilene_cost_network.content_distribution 	client-0 	3
scalar abilene_cost_network.content_distribution 	client-1 	7
scalar abilene_cost_network.content_distribution 	client-2 	9
scalar abilene_cost_network.content_distribution 	repo-0_card 	33329
scalar abilene_cost_network.content_distribution 	repo-0_price 	1
scalar abilene_cost_network.content_distribution 	repo-1_card 	33052
scalar abilene_cost_network.content_distribution 	repo-1_price 	10
scalar abilene_cost_network.content_distribution 	repo-2_card 	33619
scalar abilene_cost_network.content_distribution 	repo-2_price 	0
scalar abilene_cost_network.statistics 	repo_popularity[0] 	0.33984204835506
scalar abilene_cost_network.statistics 	repo_popularity[1] 	0.39407385110283
scalar abilene_cost_network.statistics 	repo_popularity[2] 	0.26608410054213
scalar abilene_cost_network.statistics 	stabilization_time 	36060
scalar abilene_cost_network.statistics 	p_hit 	0.22669126353071
scalar abilene_cost_network.statistics 	interests 	105803.09090909
scalar abilene_cost_network.statistics 	data 	56720
scalar abilene_cost_network.statistics 	hdistance 	1.6672011314444
scalar abilene_cost_network.statistics 	avg_time 	0.008350945689
scalar abilene_cost_network.statistics 	downloads 	539861
scalar abilene_cost_network.statistics 	total_cost 	1072448
scalar abilene_cost_network.statistics 	total_replicas 	100000
scalar abilene_cost_network.statistics 	inner_hit 	0.48874617725674
scalar abilene_cost_network.node[0].core_layer 	interests[0] 	0
scalar abilene_cost_network.node[0].core_layer 	data[0] 	0
scalar abilene_cost_network.node[0].core_layer 	repo_int[0] 	276006
scalar abilene_cost_network.node[0].content_store 	p_hit[0] 	-nan
scalar abilene_cost_network.node[0].content_store 	hits[0] 	0
scalar abilene_cost_network.node[0].content_store 	misses[0] 	0
scalar abilene_cost_network.node[0].content_store 	decision_yes[0] 	0
scalar abilene_cost_network.node[0].content_store 	decision_no[0] 	0
scalar abilene_cost_network.node[0].content_store 	decision_ratio[0] 	0
scalar abilene_cost_network.node[1].core_layer 	interests[1] 	0
scalar abilene_cost_network.node[1].core_layer 	data[1] 	0
scalar abilene_cost_network.node[1].content_store 	p_hit[1] 	-nan
scalar abilene_cost_network.node[1].content_store 	hits[1] 	0
scalar abilene_cost_network.node[1].content_store 	misses[1] 	0
scalar abilene_cost_network.node[1].content_store 	decision_yes[1] 	0
scalar abilene_cost_network.node[1].content_store 	decision_no[1] 	0
scalar abilene_cost_network.node[1].content_store 	decision_ratio[1] 	0
scalar abilene_cost_network.node[2].core_layer 	interests[2] 	74692
scalar abilene_cost_network.node[2].core_layer 	data[2] 	67141
scalar abilene_cost_network.node[2].content_store 	p_hit[2] 	0.10108177582606
scalar abilene_cost_network.node[2].content_store 	hits[2] 	7550
scalar abilene_cost_network.node[2].content_store 	misses[2] 	67142
scalar abilene_cost_network.node[2].content_store 	decision_yes[2] 	330
scalar abilene_cost_network.node[2].content_store 	decision_no[2] 	66811
scalar abilene_cost_network.node[2].content_store 	decision_ratio[2] 	0.0049150295646475
scalar abilene_cost_network.node[3].core_layer 	interests[3] 	249607
scalar abilene_cost_network.node[3].core_layer 	data[3] 	174277
scalar abilene_cost_network.node[3].content_store 	p_hit[3] 	0.30172230746734
scalar abilene_cost_network.node[3].content_store 	hits[3] 	75312
scalar abilene_cost_network.node[3].content_store 	misses[3] 	174295
scalar abilene_cost_network.node[3].content_store 	decision_yes[3] 	890
scalar abilene_cost_network.node[3].content_store 	decision_no[3] 	173387
scalar abilene_cost_network.node[3].content_store 	decision_ratio[3] 	0.0051068127176851
scalar abilene_cost_network.node[4].core_layer 	interests[4] 	97528
scalar abilene_cost_network.node[4].core_layer 	repo_load[4] 	88598
scalar abilene_cost_network.node[4].core_layer 	data[4] 	0
scalar abilene_cost_network.node[4].content_store 	p_hit[4] 	0.091563448445575
scalar abilene_cost_network.node[4].content_store 	hits[4] 	8930
scalar abilene_cost_network.node[4].content_store 	misses[4] 	88598
scalar abilene_cost_network.node[4].content_store 	decision_yes[4] 	453
scalar abilene_cost_network.node[4].content_store 	decision_no[4] 	88145
scalar abilene_cost_network.node[4].content_store 	decision_ratio[4] 	0.0051129822343619
scalar abilene_cost_network.node[5].core_layer 	interests[5] 	0
scalar abilene_cost_network.node[5].core_layer 	data[5] 	0
scalar abilene_cost_network.node[5].content_store 	p_hit[5] 	-nan
scalar abilene_cost_network.node[5].content_store 	hits[5] 	0
scalar abilene_cost_network.node[5].content_store 	misses[5] 	0
scalar abilene_cost_network.node[5].content_store 	decision_yes[5] 	0
scalar abilene_cost_network.node[5].content_store 	decision_no[5] 	0
scalar abilene_cost_network.node[5].content_store 	decision_ratio[5] 	0
scalar abilene_cost_network.node[6].core_layer 	interests[6] 	99255
scalar abilene_cost_network.node[6].core_layer 	repo_load[6] 	89023
scalar abilene_cost_network.node[6].core_layer 	data[6] 	0
scalar abilene_cost_network.node[6].content_store 	p_hit[6] 	0.10308800564203
scalar abilene_cost_network.node[6].content_store 	hits[6] 	10232
scalar abilene_cost_network.node[6].content_store 	misses[6] 	89023
scalar abilene_cost_network.node[6].content_store 	decision_yes[6] 	420
scalar abilene_cost_network.node[6].content_store 	decision_no[6] 	88603
scalar abilene_cost_network.node[6].content_store 	decision_ratio[6] 	0.0047178818956899
scalar abilene_cost_network.node[7].core_layer 	interests[7] 	251405
scalar abilene_cost_network.node[7].core_layer 	data[7] 	175671
scalar abilene_cost_network.node[7].content_store 	p_hit[7] 	0.30112766253654
scalar abilene_cost_network.node[7].content_store 	hits[7] 	75705
scalar abilene_cost_network.node[7].content_store 	misses[7] 	175700
scalar abilene_cost_network.node[7].content_store 	decision_yes[7] 	868
scalar abilene_cost_network.node[7].content_store 	decision_no[7] 	174803
scalar abilene_cost_network.node[7].content_store 	decision_ratio[7] 	0.0049410545849913
scalar abilene_cost_network.node[8].core_layer 	interests[8] 	146796
scalar abilene_cost_network.node[8].core_layer 	data[8] 	133787
scalar abilene_cost_network.node[8].content_store 	p_hit[8] 	0.088551459167825
scalar abilene_cost_network.node[8].content_store 	hits[8] 	12999
scalar abilene_cost_network.node[8].content_store 	misses[8] 	133797
scalar abilene_cost_network.node[8].content_store 	decision_yes[8] 	669
scalar abilene_cost_network.node[8].content_store 	decision_no[8] 	133118
scalar abilene_cost_network.node[8].content_store 	decision_ratio[8] 	0.0050004858469059
scalar abilene_cost_network.node[9].core_layer 	interests[9] 	244551
scalar abilene_cost_network.node[9].core_layer 	repo_load[9] 	98385
scalar abilene_cost_network.node[9].core_layer 	data[9] 	73044
scalar abilene_cost_network.node[9].content_store 	p_hit[9] 	0.29892742209192
scalar abilene_cost_network.node[9].content_store 	hits[9] 	73103
scalar abilene_cost_network.node[9].content_store 	misses[9] 	171448
scalar abilene_cost_network.node[9].content_store 	decision_yes[9] 	824
scalar abilene_cost_network.node[9].content_store 	decision_no[9] 	170605
scalar abilene_cost_network.node[9].content_store 	decision_ratio[9] 	0.00480665465003
scalar abilene_cost_network.node[10].core_layer 	interests[10] 	0
scalar abilene_cost_network.node[10].core_layer 	data[10] 	0
scalar abilene_cost_network.node[10].content_store 	p_hit[10] 	-nan
scalar abilene_cost_network.node[10].content_store 	hits[10] 	0
scalar abilene_cost_network.node[10].content_store 	misses[10] 	0
scalar abilene_cost_network.node[10].content_store 	decision_yes[10] 	0
scalar abilene_cost_network.node[10].content_store 	decision_no[10] 	0
scalar abilene_cost_network.node[10].content_store 	decision_ratio[10] 	0
scalar abilene_cost_network.client[3] 	hdistance[3] 	1.6574446428273
scalar abilene_cost_network.client[3] 	downloads[3] 	179787
scalar abilene_cost_network.client[3] 	avg_time[3] 	0.007267412684
scalar abilene_cost_network.client[7] 	hdistance[7] 	1.4958068953277
scalar abilene_cost_network.client[7] 	downloads[7] 	180296
scalar abilene_cost_network.client[7] 	avg_time[7] 	0.006785386373
scalar abilene_cost_network.client[9] 	hdistance[9] 	1.8483518561782
scalar abilene_cost_network.client[9] 	downloads[9] 	179778
scalar abilene_cost_network.client[9] 	avg_time[9] 	0.011000038011
