version 2
run General-2-20150327-17:01:17-21621
attr D fix0.01
attr F nrr
attr R lru
attr a 1
attr configname General
attr csize 1e3
attr ctlg 1e5
attr datetime 20150327-17:01:17
attr experiment General
attr inifile omnetpp.ini
attr iterationvars "$rep=1, $net=cost_scenario, $lambda=100, $a=1, $ctlg=1e5, $F=nrr, $ttl=10, $D=fix0.01, $R=lru, $csize=1e3, $window=60, $variance=0.05, $mytime=1800, $kappa=1, $priceratiovalue=1, $splits=0.5_0.5_0, $pricebits=0"
attr iterationvars2 "$rep=1, $net=cost_scenario, $lambda=100, $a=1, $ctlg=1e5, $F=nrr, $ttl=10, $D=fix0.01, $R=lru, $csize=1e3, $window=60, $variance=0.05, $mytime=1800, $kappa=1, $priceratiovalue=1, $splits=0.5_0.5_0, $pricebits=0, $repetition=0"
attr kappa 1
attr lambda 100
attr measurement "$rep=1, $net=cost_scenario, $lambda=100, $a=1, $ctlg=1e5, $F=nrr, $ttl=10, $D=fix0.01, $R=lru, $csize=1e3, $window=60, $variance=0.05, $mytime=1800, $kappa=1, $priceratiovalue=1, $splits=0.5_0.5_0, $pricebits=0"
attr mytime 1800
attr net cost_scenario
attr network networks.${net=cost_scenario}_network
attr pricebits 0
attr priceratiovalue 1
attr processid 21621
attr rep 1
attr repetition 0
attr replication #0
attr resultdir results
attr runnumber 2
attr seedset 1
attr splits 0.5_0.5_0
attr ttl 10
attr variance 0.05
attr window 60

scalar . 	a 	1
scalar . 	csize 	1e3
scalar . 	ctlg 	1e5
scalar . 	kappa 	1
scalar . 	lambda 	100
scalar . 	mytime 	1800
scalar . 	pricebits 	0
scalar . 	priceratiovalue 	1
scalar . 	rep 	1
scalar . 	ttl 	10
scalar . 	variance 	0.05
scalar . 	window 	60
scalar cost_scenario_network.content_distribution 	repo-0 	1
scalar cost_scenario_network.content_distribution 	repo-1 	2
scalar cost_scenario_network.content_distribution 	repo-2 	3
scalar cost_scenario_network.content_distribution 	client-0 	0
scalar cost_scenario_network.content_distribution 	repo-0_card 	49964
scalar cost_scenario_network.content_distribution 	repo-0_price 	1
scalar cost_scenario_network.content_distribution 	repo-1_card 	50036
scalar cost_scenario_network.content_distribution 	repo-1_price 	0
scalar cost_scenario_network.content_distribution 	repo-2_card 	0
scalar cost_scenario_network.content_distribution 	repo-2_price 	1
scalar cost_scenario_network.statistics 	repo_popularity[0] 	0.41696023996424
scalar cost_scenario_network.statistics 	repo_popularity[1] 	0.58303976003578
scalar cost_scenario_network.statistics 	repo_popularity[2] 	0
scalar cost_scenario_network.statistics 	stabilization_time 	1791.3
scalar cost_scenario_network.statistics 	p_hit 	0.37042051031732
scalar cost_scenario_network.statistics 	interests 	65557.25
scalar cost_scenario_network.statistics 	data 	20636.75
scalar cost_scenario_network.statistics 	hdistance 	0.91881212364066
scalar cost_scenario_network.statistics 	avg_time 	0
scalar cost_scenario_network.statistics 	downloads 	179682
scalar cost_scenario_network.statistics 	total_cost 	41067
scalar cost_scenario_network.statistics 	total_replicas 	100000
scalar cost_scenario_network.statistics 	inner_hit 	0.54059393817967
scalar cost_scenario_network.statistics 	interests_sent 	179682
scalar cost_scenario_network.node[0].core_layer 	interests[0] 	179682
scalar cost_scenario_network.node[0].core_layer 	data[0] 	82547
scalar cost_scenario_network.node[0].core_layer 	repo_int[0] 	82547
scalar cost_scenario_network.node[0].content_store 	p_hit[0] 	0.54059393817967
scalar cost_scenario_network.node[0].content_store 	hits[0] 	97135
scalar cost_scenario_network.node[0].content_store 	misses[0] 	82547
scalar cost_scenario_network.node[0].content_store 	decision_yes[0] 	842
scalar cost_scenario_network.node[0].content_store 	decision_no[0] 	81705
scalar cost_scenario_network.node[0].content_store 	decision_ratio[0] 	0.010200249554799
scalar cost_scenario_network.node[0].content_store 	cache_value[0] 	2.4201333126274
scalar cost_scenario_network.node[0].content_store 	average_price_of_cache[0] 	0.495
scalar cost_scenario_network.node[1].core_layer 	interests[1] 	41067
scalar cost_scenario_network.node[1].core_layer 	repo_load[1] 	41067
scalar cost_scenario_network.node[1].core_layer 	data[1] 	0
scalar cost_scenario_network.node[1].content_store 	p_hit[1] 	0
scalar cost_scenario_network.node[1].content_store 	hits[1] 	0
scalar cost_scenario_network.node[1].content_store 	misses[1] 	41067
scalar cost_scenario_network.node[1].content_store 	decision_yes[1] 	0
scalar cost_scenario_network.node[1].content_store 	decision_no[1] 	41067
scalar cost_scenario_network.node[1].content_store 	decision_ratio[1] 	0
scalar cost_scenario_network.node[1].content_store 	cache_value[1] 	7.8393277449876e-317
scalar cost_scenario_network.node[1].content_store 	average_price_of_cache[1] 	-nan
scalar cost_scenario_network.node[2].core_layer 	interests[2] 	41480
scalar cost_scenario_network.node[2].core_layer 	repo_load[2] 	41480
scalar cost_scenario_network.node[2].core_layer 	data[2] 	0
scalar cost_scenario_network.node[2].content_store 	p_hit[2] 	0
scalar cost_scenario_network.node[2].content_store 	hits[2] 	0
scalar cost_scenario_network.node[2].content_store 	misses[2] 	41480
scalar cost_scenario_network.node[2].content_store 	decision_yes[2] 	0
scalar cost_scenario_network.node[2].content_store 	decision_no[2] 	41480
scalar cost_scenario_network.node[2].content_store 	decision_ratio[2] 	0
scalar cost_scenario_network.node[2].content_store 	cache_value[2] 	7.8409166601046e-317
scalar cost_scenario_network.node[2].content_store 	average_price_of_cache[2] 	-nan
scalar cost_scenario_network.node[3].core_layer 	interests[3] 	0
scalar cost_scenario_network.node[3].core_layer 	data[3] 	0
scalar cost_scenario_network.node[3].content_store 	p_hit[3] 	-nan
scalar cost_scenario_network.node[3].content_store 	hits[3] 	0
scalar cost_scenario_network.node[3].content_store 	misses[3] 	0
scalar cost_scenario_network.node[3].content_store 	decision_yes[3] 	0
scalar cost_scenario_network.node[3].content_store 	decision_no[3] 	0
scalar cost_scenario_network.node[3].content_store 	decision_ratio[3] 	0
scalar cost_scenario_network.node[3].content_store 	cache_value[3] 	7.8425055752216e-317
scalar cost_scenario_network.node[3].content_store 	average_price_of_cache[3] 	-nan
scalar cost_scenario_network.client[0] 	hdistance[0] 	0.91881212364066
scalar cost_scenario_network.client[0] 	downloads[0] 	179682
scalar cost_scenario_network.client[0] 	avg_time[0] 	0
scalar cost_scenario_network.client[0] 	interests_sent[0] 	179682
