version 2
run General-22-20140908-17:31:24-16926
attr D lce
attr F nrr
attr R lru
attr a 1
attr configname General
attr csize 1e3
attr ctlg 1e5
attr datetime 20140908-17:31:24
attr experiment General
attr inifile omnetpp.ini
attr iterationvars "$net=tiger_cost, $rep=19, $priceratiovalue=10, $weights=0.333_0.333_0.334, $lambda=100, $a=1, $ctlg=1e5, $F=nrr, $ttl=10, $D=lce, $xi=1, $R=lru, $csize=1e3, $pricebits=0, $window=60, $variance=0.05, $mytime=1800"
attr iterationvars2 "$net=tiger_cost, $rep=19, $priceratiovalue=10, $weights=0.333_0.333_0.334, $lambda=100, $a=1, $ctlg=1e5, $F=nrr, $ttl=10, $D=lce, $xi=1, $R=lru, $csize=1e3, $pricebits=0, $window=60, $variance=0.05, $mytime=1800, $repetition=0"
attr lambda 100
attr measurement "$net=tiger_cost, $rep=19, $priceratiovalue=10, $weights=0.333_0.333_0.334, $lambda=100, $a=1, $ctlg=1e5, $F=nrr, $ttl=10, $D=lce, $xi=1, $R=lru, $csize=1e3, $pricebits=0, $window=60, $variance=0.05, $mytime=1800"
attr mytime 1800
attr net tiger_cost
attr network networks.${net=level3_cost,tiger_cost,dtelecom_cost}_network
attr pricebits 0
attr priceratiovalue 10
attr processid 16926
attr rep 19
attr repetition 0
attr replication #0
attr resultdir results
attr runnumber 22
attr seedset 19
attr ttl 10
attr variance 0.05
attr weights 0.333_0.333_0.334
attr window 60
attr xi 1

scalar . 	a 	1
scalar . 	csize 	1e3
scalar . 	ctlg 	1e5
scalar . 	lambda 	100
scalar . 	mytime 	1800
scalar . 	pricebits 	0
scalar . 	priceratiovalue 	10
scalar . 	rep 	19
scalar . 	ttl 	10
scalar . 	variance 	0.05
scalar . 	window 	60
scalar . 	xi 	1
scalar tiger_cost_network.content_distribution 	repo-0 	3
scalar tiger_cost_network.content_distribution 	repo-1 	0
scalar tiger_cost_network.content_distribution 	repo-2 	14
scalar tiger_cost_network.content_distribution 	client-0 	3
scalar tiger_cost_network.content_distribution 	client-1 	20
scalar tiger_cost_network.content_distribution 	client-2 	1
scalar tiger_cost_network.content_distribution 	repo-0_card 	33373
scalar tiger_cost_network.content_distribution 	repo-0_price 	10
scalar tiger_cost_network.content_distribution 	repo-1_card 	33385
scalar tiger_cost_network.content_distribution 	repo-1_price 	1
scalar tiger_cost_network.content_distribution 	repo-2_card 	33242
scalar tiger_cost_network.content_distribution 	repo-2_price 	0
scalar tiger_cost_network.statistics 	repo_popularity[0] 	0.41183223595039
scalar tiger_cost_network.statistics 	repo_popularity[1] 	0.29096057586331
scalar tiger_cost_network.statistics 	repo_popularity[2] 	0.29720718818631
scalar tiger_cost_network.statistics 	stabilization_time 	36120
scalar tiger_cost_network.statistics 	p_hit 	0.13666990512628
scalar tiger_cost_network.statistics 	interests 	67980.318181818
scalar tiger_cost_network.statistics 	data 	43422.909090909
scalar tiger_cost_network.statistics 	hdistance 	2.3893996190949
scalar tiger_cost_network.statistics 	avg_time 	0.000745793183
scalar tiger_cost_network.statistics 	downloads 	540219
scalar tiger_cost_network.statistics 	total_cost 	1377696
scalar tiger_cost_network.statistics 	total_replicas 	100000
scalar tiger_cost_network.statistics 	inner_hit 	0.37836877266442
scalar tiger_cost_network.statistics 	interests_sent 	540264
scalar tiger_cost_network.node[0].core_layer 	interests[0] 	93462
scalar tiger_cost_network.node[0].core_layer 	repo_load[0] 	92666
scalar tiger_cost_network.node[0].core_layer 	data[0] 	13
scalar tiger_cost_network.node[0].core_layer 	repo_int[0] 	335817
scalar tiger_cost_network.node[0].content_store 	p_hit[0] 	0.00837773640624
scalar tiger_cost_network.node[0].content_store 	hits[0] 	783
scalar tiger_cost_network.node[0].content_store 	misses[0] 	92679
scalar tiger_cost_network.node[0].content_store 	decision_yes[0] 	92679
scalar tiger_cost_network.node[0].content_store 	decision_no[0] 	0
scalar tiger_cost_network.node[0].content_store 	decision_ratio[0] 	1
scalar tiger_cost_network.node[1].core_layer 	interests[1] 	186782
scalar tiger_cost_network.node[1].core_layer 	data[1] 	142395
scalar tiger_cost_network.node[1].content_store 	p_hit[1] 	0.23757107215899
scalar tiger_cost_network.node[1].content_store 	hits[1] 	44374
scalar tiger_cost_network.node[1].content_store 	misses[1] 	142408
scalar tiger_cost_network.node[1].content_store 	decision_yes[1] 	142395
scalar tiger_cost_network.node[1].content_store 	decision_no[1] 	0
scalar tiger_cost_network.node[1].content_store 	decision_ratio[1] 	1
scalar tiger_cost_network.node[2].core_layer 	interests[2] 	118652
scalar tiger_cost_network.node[2].core_layer 	data[2] 	115205
scalar tiger_cost_network.node[2].content_store 	p_hit[2] 	0.029051343424468
scalar tiger_cost_network.node[2].content_store 	hits[2] 	3447
scalar tiger_cost_network.node[2].content_store 	misses[2] 	115205
scalar tiger_cost_network.node[2].content_store 	decision_yes[2] 	115202
scalar tiger_cost_network.node[2].content_store 	decision_no[2] 	0
scalar tiger_cost_network.node[2].content_store 	decision_ratio[2] 	1
scalar tiger_cost_network.node[3].core_layer 	interests[3] 	334213
scalar tiger_cost_network.node[3].core_layer 	repo_load[3] 	128503
scalar tiger_cost_network.node[3].core_layer 	data[3] 	173485
scalar tiger_cost_network.node[3].content_store 	p_hit[3] 	0.096372672517227
scalar tiger_cost_network.node[3].content_store 	hits[3] 	32209
scalar tiger_cost_network.node[3].content_store 	misses[3] 	302004
scalar tiger_cost_network.node[3].content_store 	decision_yes[3] 	301979
scalar tiger_cost_network.node[3].content_store 	decision_no[3] 	0
scalar tiger_cost_network.node[3].content_store 	decision_ratio[3] 	1
scalar tiger_cost_network.node[4].core_layer 	interests[4] 	91393
scalar tiger_cost_network.node[4].core_layer 	data[4] 	86760
scalar tiger_cost_network.node[4].content_store 	p_hit[4] 	0.050693160307682
scalar tiger_cost_network.node[4].content_store 	hits[4] 	4633
scalar tiger_cost_network.node[4].content_store 	misses[4] 	86760
scalar tiger_cost_network.node[4].content_store 	decision_yes[4] 	86758
scalar tiger_cost_network.node[4].content_store 	decision_no[4] 	0
scalar tiger_cost_network.node[4].content_store 	decision_ratio[4] 	1
scalar tiger_cost_network.node[5].core_layer 	interests[5] 	10664
scalar tiger_cost_network.node[5].core_layer 	data[5] 	182
scalar tiger_cost_network.node[5].content_store 	p_hit[5] 	0.98293323330833
scalar tiger_cost_network.node[5].content_store 	hits[5] 	10482
scalar tiger_cost_network.node[5].content_store 	misses[5] 	182
scalar tiger_cost_network.node[5].content_store 	decision_yes[5] 	182
scalar tiger_cost_network.node[5].content_store 	decision_no[5] 	0
scalar tiger_cost_network.node[5].content_store 	decision_ratio[5] 	1
scalar tiger_cost_network.node[6].core_layer 	interests[6] 	7001
scalar tiger_cost_network.node[6].core_layer 	data[6] 	5
scalar tiger_cost_network.node[6].content_store 	p_hit[6] 	0.99928581631196
scalar tiger_cost_network.node[6].content_store 	hits[6] 	6996
scalar tiger_cost_network.node[6].content_store 	misses[6] 	5
scalar tiger_cost_network.node[6].content_store 	decision_yes[6] 	5
scalar tiger_cost_network.node[6].content_store 	decision_no[6] 	0
scalar tiger_cost_network.node[6].content_store 	decision_ratio[6] 	1
scalar tiger_cost_network.node[7].core_layer 	interests[7] 	36046
scalar tiger_cost_network.node[7].core_layer 	data[7] 	11407
scalar tiger_cost_network.node[7].content_store 	p_hit[7] 	0.68351550796205
scalar tiger_cost_network.node[7].content_store 	hits[7] 	24638
scalar tiger_cost_network.node[7].content_store 	misses[7] 	11408
scalar tiger_cost_network.node[7].content_store 	decision_yes[7] 	11407
scalar tiger_cost_network.node[7].content_store 	decision_no[7] 	0
scalar tiger_cost_network.node[7].content_store 	decision_ratio[7] 	1
scalar tiger_cost_network.node[8].core_layer 	interests[8] 	34022
scalar tiger_cost_network.node[8].core_layer 	data[8] 	8853
scalar tiger_cost_network.node[8].content_store 	p_hit[8] 	0.73978602081006
scalar tiger_cost_network.node[8].content_store 	hits[8] 	25169
scalar tiger_cost_network.node[8].content_store 	misses[8] 	8853
scalar tiger_cost_network.node[8].content_store 	decision_yes[8] 	8853
scalar tiger_cost_network.node[8].content_store 	decision_no[8] 	0
scalar tiger_cost_network.node[8].content_store 	decision_ratio[8] 	1
scalar tiger_cost_network.node[9].core_layer 	interests[9] 	0
scalar tiger_cost_network.node[9].core_layer 	data[9] 	0
scalar tiger_cost_network.node[9].content_store 	p_hit[9] 	-nan
scalar tiger_cost_network.node[9].content_store 	hits[9] 	0
scalar tiger_cost_network.node[9].content_store 	misses[9] 	0
scalar tiger_cost_network.node[9].content_store 	decision_yes[9] 	0
scalar tiger_cost_network.node[9].content_store 	decision_no[9] 	0
scalar tiger_cost_network.node[9].content_store 	decision_ratio[9] 	0
scalar tiger_cost_network.node[10].core_layer 	interests[10] 	31589
scalar tiger_cost_network.node[10].core_layer 	data[10] 	30865
scalar tiger_cost_network.node[10].content_store 	p_hit[10] 	0.022919370667004
scalar tiger_cost_network.node[10].content_store 	hits[10] 	724
scalar tiger_cost_network.node[10].content_store 	misses[10] 	30865
scalar tiger_cost_network.node[10].content_store 	decision_yes[10] 	30865
scalar tiger_cost_network.node[10].content_store 	decision_no[10] 	0
scalar tiger_cost_network.node[10].content_store 	decision_ratio[10] 	1
scalar tiger_cost_network.node[11].core_layer 	interests[11] 	31090
scalar tiger_cost_network.node[11].core_layer 	data[11] 	30855
scalar tiger_cost_network.node[11].content_store 	p_hit[11] 	0.0075587005467996
scalar tiger_cost_network.node[11].content_store 	hits[11] 	235
scalar tiger_cost_network.node[11].content_store 	misses[11] 	30855
scalar tiger_cost_network.node[11].content_store 	decision_yes[11] 	30855
scalar tiger_cost_network.node[11].content_store 	decision_no[11] 	0
scalar tiger_cost_network.node[11].content_store 	decision_ratio[11] 	1
scalar tiger_cost_network.node[12].core_layer 	interests[12] 	31980
scalar tiger_cost_network.node[12].core_layer 	data[12] 	30924
scalar tiger_cost_network.node[12].content_store 	p_hit[12] 	0.033020637898687
scalar tiger_cost_network.node[12].content_store 	hits[12] 	1056
scalar tiger_cost_network.node[12].content_store 	misses[12] 	30924
scalar tiger_cost_network.node[12].content_store 	decision_yes[12] 	30924
scalar tiger_cost_network.node[12].content_store 	decision_no[12] 	0
scalar tiger_cost_network.node[12].content_store 	decision_ratio[12] 	1
scalar tiger_cost_network.node[13].core_layer 	interests[13] 	0
scalar tiger_cost_network.node[13].core_layer 	data[13] 	0
scalar tiger_cost_network.node[13].content_store 	p_hit[13] 	-nan
scalar tiger_cost_network.node[13].content_store 	hits[13] 	0
scalar tiger_cost_network.node[13].content_store 	misses[13] 	0
scalar tiger_cost_network.node[13].content_store 	decision_yes[13] 	0
scalar tiger_cost_network.node[13].content_store 	decision_no[13] 	0
scalar tiger_cost_network.node[13].content_store 	decision_ratio[13] 	0
scalar tiger_cost_network.node[14].core_layer 	interests[14] 	117902
scalar tiger_cost_network.node[14].core_layer 	repo_load[14] 	114648
scalar tiger_cost_network.node[14].core_layer 	data[14] 	0
scalar tiger_cost_network.node[14].content_store 	p_hit[14] 	0.027599192549745
scalar tiger_cost_network.node[14].content_store 	hits[14] 	3254
scalar tiger_cost_network.node[14].content_store 	misses[14] 	114648
scalar tiger_cost_network.node[14].content_store 	decision_yes[14] 	114648
scalar tiger_cost_network.node[14].content_store 	decision_no[14] 	0
scalar tiger_cost_network.node[14].content_store 	decision_ratio[14] 	1
scalar tiger_cost_network.node[15].core_layer 	interests[15] 	2148
scalar tiger_cost_network.node[15].core_layer 	data[15] 	0
scalar tiger_cost_network.node[15].content_store 	p_hit[15] 	1
scalar tiger_cost_network.node[15].content_store 	hits[15] 	2148
scalar tiger_cost_network.node[15].content_store 	misses[15] 	0
scalar tiger_cost_network.node[15].content_store 	decision_yes[15] 	0
scalar tiger_cost_network.node[15].content_store 	decision_no[15] 	0
scalar tiger_cost_network.node[15].content_store 	decision_ratio[15] 	0
scalar tiger_cost_network.node[16].core_layer 	interests[16] 	0
scalar tiger_cost_network.node[16].core_layer 	data[16] 	0
scalar tiger_cost_network.node[16].content_store 	p_hit[16] 	-nan
scalar tiger_cost_network.node[16].content_store 	hits[16] 	0
scalar tiger_cost_network.node[16].content_store 	misses[16] 	0
scalar tiger_cost_network.node[16].content_store 	decision_yes[16] 	0
scalar tiger_cost_network.node[16].content_store 	decision_no[16] 	0
scalar tiger_cost_network.node[16].content_store 	decision_ratio[16] 	0
scalar tiger_cost_network.node[17].core_layer 	interests[17] 	76940
scalar tiger_cost_network.node[17].core_layer 	data[17] 	75801
scalar tiger_cost_network.node[17].content_store 	p_hit[17] 	0.014803743176501
scalar tiger_cost_network.node[17].content_store 	hits[17] 	1139
scalar tiger_cost_network.node[17].content_store 	misses[17] 	75801
scalar tiger_cost_network.node[17].content_store 	decision_yes[17] 	75801
scalar tiger_cost_network.node[17].content_store 	decision_no[17] 	0
scalar tiger_cost_network.node[17].content_store 	decision_ratio[17] 	1
scalar tiger_cost_network.node[18].core_layer 	interests[18] 	109064
scalar tiger_cost_network.node[18].core_layer 	data[18] 	108402
scalar tiger_cost_network.node[18].content_store 	p_hit[18] 	0.0060698305582044
scalar tiger_cost_network.node[18].content_store 	hits[18] 	662
scalar tiger_cost_network.node[18].content_store 	misses[18] 	108402
scalar tiger_cost_network.node[18].content_store 	decision_yes[18] 	108402
scalar tiger_cost_network.node[18].content_store 	decision_no[18] 	0
scalar tiger_cost_network.node[18].content_store 	decision_ratio[18] 	1
scalar tiger_cost_network.node[19].core_layer 	interests[19] 	1477
scalar tiger_cost_network.node[19].core_layer 	data[19] 	0
scalar tiger_cost_network.node[19].content_store 	p_hit[19] 	1
scalar tiger_cost_network.node[19].content_store 	hits[19] 	1477
scalar tiger_cost_network.node[19].content_store 	misses[19] 	0
scalar tiger_cost_network.node[19].content_store 	decision_yes[19] 	0
scalar tiger_cost_network.node[19].content_store 	decision_no[19] 	0
scalar tiger_cost_network.node[19].content_store 	decision_ratio[19] 	0
scalar tiger_cost_network.node[20].core_layer 	interests[20] 	180543
scalar tiger_cost_network.node[20].core_layer 	data[20] 	140152
scalar tiger_cost_network.node[20].content_store 	p_hit[20] 	0.22362539671989
scalar tiger_cost_network.node[20].content_store 	hits[20] 	40374
scalar tiger_cost_network.node[20].content_store 	misses[20] 	140169
scalar tiger_cost_network.node[20].content_store 	decision_yes[20] 	140152
scalar tiger_cost_network.node[20].content_store 	decision_no[20] 	0
scalar tiger_cost_network.node[20].content_store 	decision_ratio[20] 	1
scalar tiger_cost_network.node[21].core_layer 	interests[21] 	599
scalar tiger_cost_network.node[21].core_layer 	data[21] 	0
scalar tiger_cost_network.node[21].content_store 	p_hit[21] 	1
scalar tiger_cost_network.node[21].content_store 	hits[21] 	599
scalar tiger_cost_network.node[21].content_store 	misses[21] 	0
scalar tiger_cost_network.node[21].content_store 	decision_yes[21] 	0
scalar tiger_cost_network.node[21].content_store 	decision_no[21] 	0
scalar tiger_cost_network.node[21].content_store 	decision_ratio[21] 	0
scalar tiger_cost_network.client[1] 	hdistance[1] 	2.4201387349852
scalar tiger_cost_network.client[1] 	downloads[1] 	180488
scalar tiger_cost_network.client[1] 	avg_time[1] 	0.000747208334
scalar tiger_cost_network.client[1] 	interests_sent[1] 	180501
scalar tiger_cost_network.client[3] 	hdistance[3] 	1.675303062349
scalar tiger_cost_network.client[3] 	downloads[3] 	179666
scalar tiger_cost_network.client[3] 	avg_time[3] 	0.000553097684
scalar tiger_cost_network.client[3] 	interests_sent[3] 	179681
scalar tiger_cost_network.client[20] 	hdistance[20] 	3.0727570599506
scalar tiger_cost_network.client[20] 	downloads[20] 	180065
scalar tiger_cost_network.client[20] 	avg_time[20] 	0.000937073532
scalar tiger_cost_network.client[20] 	interests_sent[20] 	180082
