version 2
run General-26-20140908-17:46:02-16962
attr D lce
attr F spr
attr R lru
attr a 1
attr configname General
attr csize 1e3
attr ctlg 1e5
attr datetime 20140908-17:46:02
attr experiment General
attr inifile omnetpp.ini
attr iterationvars "$net=tiger_cost, $rep=20, $priceratiovalue=10, $weights=0.333_0.333_0.334, $lambda=100, $a=1, $ctlg=1e5, $F=spr, $ttl=10, $D=lce, $xi=1, $R=lru, $csize=1e3, $pricebits=0, $window=60, $variance=0.05, $mytime=1800"
attr iterationvars2 "$net=tiger_cost, $rep=20, $priceratiovalue=10, $weights=0.333_0.333_0.334, $lambda=100, $a=1, $ctlg=1e5, $F=spr, $ttl=10, $D=lce, $xi=1, $R=lru, $csize=1e3, $pricebits=0, $window=60, $variance=0.05, $mytime=1800, $repetition=0"
attr lambda 100
attr measurement "$net=tiger_cost, $rep=20, $priceratiovalue=10, $weights=0.333_0.333_0.334, $lambda=100, $a=1, $ctlg=1e5, $F=spr, $ttl=10, $D=lce, $xi=1, $R=lru, $csize=1e3, $pricebits=0, $window=60, $variance=0.05, $mytime=1800"
attr mytime 1800
attr net tiger_cost
attr network networks.${net=level3_cost,tiger_cost,dtelecom_cost}_network
attr pricebits 0
attr priceratiovalue 10
attr processid 16962
attr rep 20
attr repetition 0
attr replication #0
attr resultdir results
attr runnumber 26
attr seedset 20
attr ttl 10
attr variance 0.05
attr weights 0.333_0.333_0.334
attr window 60
attr xi 1

scalar . 	a 	1
scalar . 	csize 	1e3
scalar . 	ctlg 	1e5
scalar . 	lambda 	100
scalar . 	mytime 	1800
scalar . 	pricebits 	0
scalar . 	priceratiovalue 	10
scalar . 	rep 	20
scalar . 	ttl 	10
scalar . 	variance 	0.05
scalar . 	window 	60
scalar . 	xi 	1
scalar tiger_cost_network.content_distribution 	repo-0 	3
scalar tiger_cost_network.content_distribution 	repo-1 	18
scalar tiger_cost_network.content_distribution 	repo-2 	2
scalar tiger_cost_network.content_distribution 	client-0 	15
scalar tiger_cost_network.content_distribution 	client-1 	2
scalar tiger_cost_network.content_distribution 	client-2 	10
scalar tiger_cost_network.content_distribution 	repo-0_card 	33323
scalar tiger_cost_network.content_distribution 	repo-0_price 	0
scalar tiger_cost_network.content_distribution 	repo-1_card 	33295
scalar tiger_cost_network.content_distribution 	repo-1_price 	1
scalar tiger_cost_network.content_distribution 	repo-2_card 	33382
scalar tiger_cost_network.content_distribution 	repo-2_price 	10
scalar tiger_cost_network.statistics 	repo_popularity[0] 	0.32913833141561
scalar tiger_cost_network.statistics 	repo_popularity[1] 	0.36392115774491
scalar tiger_cost_network.statistics 	repo_popularity[2] 	0.3069405108395
scalar tiger_cost_network.statistics 	stabilization_time 	36060
scalar tiger_cost_network.statistics 	p_hit 	0.11839000621943
scalar tiger_cost_network.statistics 	interests 	61318.136363636
scalar tiger_cost_network.statistics 	data 	36717.863636364
scalar tiger_cost_network.statistics 	hdistance 	2.1976740994313
scalar tiger_cost_network.statistics 	avg_time 	0.000521393498
scalar tiger_cost_network.statistics 	downloads 	541151
scalar tiger_cost_network.statistics 	total_cost 	1473055
scalar tiger_cost_network.statistics 	total_replicas 	100000
scalar tiger_cost_network.statistics 	inner_hit 	0.29513758636684
scalar tiger_cost_network.statistics 	interests_sent 	541206
scalar tiger_cost_network.node[0].core_layer 	interests[0] 	82991
scalar tiger_cost_network.node[0].core_layer 	data[0] 	80000
scalar tiger_cost_network.node[0].core_layer 	repo_int[0] 	381437
scalar tiger_cost_network.node[0].content_store 	p_hit[0] 	0.036003904037787
scalar tiger_cost_network.node[0].content_store 	hits[0] 	2988
scalar tiger_cost_network.node[0].content_store 	misses[0] 	80003
scalar tiger_cost_network.node[0].content_store 	decision_yes[0] 	80000
scalar tiger_cost_network.node[0].content_store 	decision_no[0] 	0
scalar tiger_cost_network.node[0].content_store 	decision_ratio[0] 	1
scalar tiger_cost_network.node[1].core_layer 	interests[1] 	94167
scalar tiger_cost_network.node[1].core_layer 	data[1] 	90872
scalar tiger_cost_network.node[1].content_store 	p_hit[1] 	0.034991026580437
scalar tiger_cost_network.node[1].content_store 	hits[1] 	3295
scalar tiger_cost_network.node[1].content_store 	misses[1] 	90872
scalar tiger_cost_network.node[1].content_store 	decision_yes[1] 	90872
scalar tiger_cost_network.node[1].content_store 	decision_no[1] 	0
scalar tiger_cost_network.node[1].content_store 	decision_ratio[1] 	1
scalar tiger_cost_network.node[2].core_layer 	interests[2] 	319594
scalar tiger_cost_network.node[2].core_layer 	repo_load[2] 	135524
scalar tiger_cost_network.node[2].core_layer 	data[2] 	141961
scalar tiger_cost_network.node[2].content_store 	p_hit[2] 	0.13166392360307
scalar tiger_cost_network.node[2].content_store 	hits[2] 	42079
scalar tiger_cost_network.node[2].content_store 	misses[2] 	277515
scalar tiger_cost_network.node[2].content_store 	decision_yes[2] 	277485
scalar tiger_cost_network.node[2].content_store 	decision_no[2] 	0
scalar tiger_cost_network.node[2].content_store 	decision_ratio[2] 	1
scalar tiger_cost_network.node[3].core_layer 	interests[3] 	185996
scalar tiger_cost_network.node[3].core_layer 	repo_load[3] 	128098
scalar tiger_cost_network.node[3].core_layer 	data[3] 	48029
scalar tiger_cost_network.node[3].content_store 	p_hit[3] 	0.053060280866255
scalar tiger_cost_network.node[3].content_store 	hits[3] 	9869
scalar tiger_cost_network.node[3].content_store 	misses[3] 	176127
scalar tiger_cost_network.node[3].content_store 	decision_yes[3] 	176127
scalar tiger_cost_network.node[3].content_store 	decision_no[3] 	0
scalar tiger_cost_network.node[3].content_store 	decision_ratio[3] 	1
scalar tiger_cost_network.node[4].core_layer 	interests[4] 	0
scalar tiger_cost_network.node[4].core_layer 	data[4] 	0
scalar tiger_cost_network.node[4].content_store 	p_hit[4] 	-nan
scalar tiger_cost_network.node[4].content_store 	hits[4] 	0
scalar tiger_cost_network.node[4].content_store 	misses[4] 	0
scalar tiger_cost_network.node[4].content_store 	decision_yes[4] 	0
scalar tiger_cost_network.node[4].content_store 	decision_no[4] 	0
scalar tiger_cost_network.node[4].content_store 	decision_ratio[4] 	0
scalar tiger_cost_network.node[5].core_layer 	interests[5] 	0
scalar tiger_cost_network.node[5].core_layer 	data[5] 	0
scalar tiger_cost_network.node[5].content_store 	p_hit[5] 	-nan
scalar tiger_cost_network.node[5].content_store 	hits[5] 	0
scalar tiger_cost_network.node[5].content_store 	misses[5] 	0
scalar tiger_cost_network.node[5].content_store 	decision_yes[5] 	0
scalar tiger_cost_network.node[5].content_store 	decision_no[5] 	0
scalar tiger_cost_network.node[5].content_store 	decision_ratio[5] 	0
scalar tiger_cost_network.node[6].core_layer 	interests[6] 	0
scalar tiger_cost_network.node[6].core_layer 	data[6] 	0
scalar tiger_cost_network.node[6].content_store 	p_hit[6] 	-nan
scalar tiger_cost_network.node[6].content_store 	hits[6] 	0
scalar tiger_cost_network.node[6].content_store 	misses[6] 	0
scalar tiger_cost_network.node[6].content_store 	decision_yes[6] 	0
scalar tiger_cost_network.node[6].content_store 	decision_no[6] 	0
scalar tiger_cost_network.node[6].content_store 	decision_ratio[6] 	0
scalar tiger_cost_network.node[7].core_layer 	interests[7] 	0
scalar tiger_cost_network.node[7].core_layer 	data[7] 	0
scalar tiger_cost_network.node[7].content_store 	p_hit[7] 	-nan
scalar tiger_cost_network.node[7].content_store 	hits[7] 	0
scalar tiger_cost_network.node[7].content_store 	misses[7] 	0
scalar tiger_cost_network.node[7].content_store 	decision_yes[7] 	0
scalar tiger_cost_network.node[7].content_store 	decision_no[7] 	0
scalar tiger_cost_network.node[7].content_store 	decision_ratio[7] 	0
scalar tiger_cost_network.node[8].core_layer 	interests[8] 	0
scalar tiger_cost_network.node[8].core_layer 	data[8] 	0
scalar tiger_cost_network.node[8].content_store 	p_hit[8] 	-nan
scalar tiger_cost_network.node[8].content_store 	hits[8] 	0
scalar tiger_cost_network.node[8].content_store 	misses[8] 	0
scalar tiger_cost_network.node[8].content_store 	decision_yes[8] 	0
scalar tiger_cost_network.node[8].content_store 	decision_no[8] 	0
scalar tiger_cost_network.node[8].content_store 	decision_ratio[8] 	0
scalar tiger_cost_network.node[9].core_layer 	interests[9] 	0
scalar tiger_cost_network.node[9].core_layer 	data[9] 	0
scalar tiger_cost_network.node[9].content_store 	p_hit[9] 	-nan
scalar tiger_cost_network.node[9].content_store 	hits[9] 	0
scalar tiger_cost_network.node[9].content_store 	misses[9] 	0
scalar tiger_cost_network.node[9].content_store 	decision_yes[9] 	0
scalar tiger_cost_network.node[9].content_store 	decision_no[9] 	0
scalar tiger_cost_network.node[9].content_store 	decision_ratio[9] 	0
scalar tiger_cost_network.node[10].core_layer 	interests[10] 	180640
scalar tiger_cost_network.node[10].core_layer 	data[10] 	140697
scalar tiger_cost_network.node[10].content_store 	p_hit[10] 	0.22102524357839
scalar tiger_cost_network.node[10].content_store 	hits[10] 	39926
scalar tiger_cost_network.node[10].content_store 	misses[10] 	140714
scalar tiger_cost_network.node[10].content_store 	decision_yes[10] 	140697
scalar tiger_cost_network.node[10].content_store 	decision_no[10] 	0
scalar tiger_cost_network.node[10].content_store 	decision_ratio[10] 	1
scalar tiger_cost_network.node[11].core_layer 	interests[11] 	46530
scalar tiger_cost_network.node[11].core_layer 	data[11] 	41296
scalar tiger_cost_network.node[11].content_store 	p_hit[11] 	0.11248656780572
scalar tiger_cost_network.node[11].content_store 	hits[11] 	5234
scalar tiger_cost_network.node[11].content_store 	misses[11] 	41296
scalar tiger_cost_network.node[11].content_store 	decision_yes[11] 	41296
scalar tiger_cost_network.node[11].content_store 	decision_no[11] 	0
scalar tiger_cost_network.node[11].content_store 	decision_ratio[11] 	1
scalar tiger_cost_network.node[12].core_layer 	interests[12] 	50089
scalar tiger_cost_network.node[12].core_layer 	data[12] 	41695
scalar tiger_cost_network.node[12].content_store 	p_hit[12] 	0.16758170456587
scalar tiger_cost_network.node[12].content_store 	hits[12] 	8394
scalar tiger_cost_network.node[12].content_store 	misses[12] 	41695
scalar tiger_cost_network.node[12].content_store 	decision_yes[12] 	41695
scalar tiger_cost_network.node[12].content_store 	decision_no[12] 	0
scalar tiger_cost_network.node[12].content_store 	decision_ratio[12] 	1
scalar tiger_cost_network.node[13].core_layer 	interests[13] 	0
scalar tiger_cost_network.node[13].core_layer 	data[13] 	0
scalar tiger_cost_network.node[13].content_store 	p_hit[13] 	-nan
scalar tiger_cost_network.node[13].content_store 	hits[13] 	0
scalar tiger_cost_network.node[13].content_store 	misses[13] 	0
scalar tiger_cost_network.node[13].content_store 	decision_yes[13] 	0
scalar tiger_cost_network.node[13].content_store 	decision_no[13] 	0
scalar tiger_cost_network.node[13].content_store 	decision_ratio[13] 	0
scalar tiger_cost_network.node[14].core_layer 	interests[14] 	0
scalar tiger_cost_network.node[14].core_layer 	data[14] 	0
scalar tiger_cost_network.node[14].content_store 	p_hit[14] 	-nan
scalar tiger_cost_network.node[14].content_store 	hits[14] 	0
scalar tiger_cost_network.node[14].content_store 	misses[14] 	0
scalar tiger_cost_network.node[14].content_store 	decision_yes[14] 	0
scalar tiger_cost_network.node[14].content_store 	decision_no[14] 	0
scalar tiger_cost_network.node[14].content_store 	decision_ratio[14] 	0
scalar tiger_cost_network.node[15].core_layer 	interests[15] 	179873
scalar tiger_cost_network.node[15].core_layer 	data[15] 	140642
scalar tiger_cost_network.node[15].content_store 	p_hit[15] 	0.21804273014849
scalar tiger_cost_network.node[15].content_store 	hits[15] 	39220
scalar tiger_cost_network.node[15].content_store 	misses[15] 	140653
scalar tiger_cost_network.node[15].content_store 	decision_yes[15] 	140642
scalar tiger_cost_network.node[15].content_store 	decision_no[15] 	0
scalar tiger_cost_network.node[15].content_store 	decision_ratio[15] 	1
scalar tiger_cost_network.node[16].core_layer 	interests[16] 	46518
scalar tiger_cost_network.node[16].core_layer 	data[16] 	41415
scalar tiger_cost_network.node[16].content_store 	p_hit[16] 	0.10969947117245
scalar tiger_cost_network.node[16].content_store 	hits[16] 	5103
scalar tiger_cost_network.node[16].content_store 	misses[16] 	41415
scalar tiger_cost_network.node[16].content_store 	decision_yes[16] 	41415
scalar tiger_cost_network.node[16].content_store 	decision_no[16] 	0
scalar tiger_cost_network.node[16].content_store 	decision_ratio[16] 	1
scalar tiger_cost_network.node[17].core_layer 	interests[17] 	41415
scalar tiger_cost_network.node[17].core_layer 	data[17] 	41186
scalar tiger_cost_network.node[17].content_store 	p_hit[17] 	0.0055293975612701
scalar tiger_cost_network.node[17].content_store 	hits[17] 	229
scalar tiger_cost_network.node[17].content_store 	misses[17] 	41186
scalar tiger_cost_network.node[17].content_store 	decision_yes[17] 	41186
scalar tiger_cost_network.node[17].content_store 	decision_no[17] 	0
scalar tiger_cost_network.node[17].content_store 	decision_ratio[17] 	1
scalar tiger_cost_network.node[18].core_layer 	interests[18] 	121186
scalar tiger_cost_network.node[18].core_layer 	repo_load[18] 	117815
scalar tiger_cost_network.node[18].core_layer 	data[18] 	0
scalar tiger_cost_network.node[18].content_store 	p_hit[18] 	0.027816744508442
scalar tiger_cost_network.node[18].content_store 	hits[18] 	3371
scalar tiger_cost_network.node[18].content_store 	misses[18] 	117815
scalar tiger_cost_network.node[18].content_store 	decision_yes[18] 	117815
scalar tiger_cost_network.node[18].content_store 	decision_no[18] 	0
scalar tiger_cost_network.node[18].content_store 	decision_ratio[18] 	1
scalar tiger_cost_network.node[19].core_layer 	interests[19] 	0
scalar tiger_cost_network.node[19].core_layer 	data[19] 	0
scalar tiger_cost_network.node[19].content_store 	p_hit[19] 	-nan
scalar tiger_cost_network.node[19].content_store 	hits[19] 	0
scalar tiger_cost_network.node[19].content_store 	misses[19] 	0
scalar tiger_cost_network.node[19].content_store 	decision_yes[19] 	0
scalar tiger_cost_network.node[19].content_store 	decision_no[19] 	0
scalar tiger_cost_network.node[19].content_store 	decision_ratio[19] 	0
scalar tiger_cost_network.node[20].core_layer 	interests[20] 	0
scalar tiger_cost_network.node[20].core_layer 	data[20] 	0
scalar tiger_cost_network.node[20].content_store 	p_hit[20] 	-nan
scalar tiger_cost_network.node[20].content_store 	hits[20] 	0
scalar tiger_cost_network.node[20].content_store 	misses[20] 	0
scalar tiger_cost_network.node[20].content_store 	decision_yes[20] 	0
scalar tiger_cost_network.node[20].content_store 	decision_no[20] 	0
scalar tiger_cost_network.node[20].content_store 	decision_ratio[20] 	0
scalar tiger_cost_network.node[21].core_layer 	interests[21] 	0
scalar tiger_cost_network.node[21].core_layer 	data[21] 	0
scalar tiger_cost_network.node[21].content_store 	p_hit[21] 	-nan
scalar tiger_cost_network.node[21].content_store 	hits[21] 	0
scalar tiger_cost_network.node[21].content_store 	misses[21] 	0
scalar tiger_cost_network.node[21].content_store 	decision_yes[21] 	0
scalar tiger_cost_network.node[21].content_store 	decision_no[21] 	0
scalar tiger_cost_network.node[21].content_store 	decision_ratio[21] 	0
scalar tiger_cost_network.client[2] 	hdistance[2] 	1.7291410669412
scalar tiger_cost_network.client[2] 	downloads[2] 	180666
scalar tiger_cost_network.client[2] 	avg_time[2] 	0.000488842758
scalar tiger_cost_network.client[2] 	interests_sent[2] 	180693
scalar tiger_cost_network.client[10] 	hdistance[10] 	2.6512404289598
scalar tiger_cost_network.client[10] 	downloads[10] 	180623
scalar tiger_cost_network.client[10] 	avg_time[10] 	0.000710619428
scalar tiger_cost_network.client[10] 	interests_sent[10] 	180640
scalar tiger_cost_network.client[15] 	hdistance[15] 	2.212640802393
scalar tiger_cost_network.client[15] 	downloads[15] 	179862
scalar tiger_cost_network.client[15] 	avg_time[15] 	0.000364718308
scalar tiger_cost_network.client[15] 	interests_sent[15] 	179873
