version 2
run General-81-20150405-21:39:31-29714
attr D costaware0.01
attr F nrr
attr R lru
attr a 1.1
attr configname General
attr csize 1e3
attr ctlg 1e5
attr datetime 20150405-21:39:31
attr experiment General
attr inifile omnetpp.ini
attr iterationvars "$rep=18, $net=cost_scenario, $lambda=100, $a=1.1, $ctlg=1e5, $F=nrr, $ttl=10, $D=costaware0.01, $R=lru, $csize=1e3, $window=60, $variance=0.05, $mytime=1800000, $kappa=1, $priceratiovalue=10, $splits=0.25_0.25_0.5, $pricebits=0"
attr iterationvars2 "$rep=18, $net=cost_scenario, $lambda=100, $a=1.1, $ctlg=1e5, $F=nrr, $ttl=10, $D=costaware0.01, $R=lru, $csize=1e3, $window=60, $variance=0.05, $mytime=1800000, $kappa=1, $priceratiovalue=10, $splits=0.25_0.25_0.5, $pricebits=0, $repetition=0"
attr kappa 1
attr lambda 100
attr measurement "$rep=18, $net=cost_scenario, $lambda=100, $a=1.1, $ctlg=1e5, $F=nrr, $ttl=10, $D=costaware0.01, $R=lru, $csize=1e3, $window=60, $variance=0.05, $mytime=1800000, $kappa=1, $priceratiovalue=10, $splits=0.25_0.25_0.5, $pricebits=0"
attr mytime 1800000
attr net cost_scenario
attr network networks.${net=cost_scenario}_network
attr pricebits 0
attr priceratiovalue 10
attr processid 29714
attr rep 18
attr repetition 0
attr replication #0
attr resultdir results
attr runnumber 81
attr seedset 18
attr splits 0.25_0.25_0.5
attr ttl 10
attr variance 0.05
attr window 60

scalar . 	a 	1.1
scalar . 	csize 	1e3
scalar . 	ctlg 	1e5
scalar . 	kappa 	1
scalar . 	lambda 	100
scalar . 	mytime 	1800000
scalar . 	pricebits 	0
scalar . 	priceratiovalue 	10
scalar . 	rep 	18
scalar . 	ttl 	10
scalar . 	variance 	0.05
scalar . 	window 	60
scalar cost_scenario_network.content_distribution 	repo-0 	1
scalar cost_scenario_network.content_distribution 	repo-1 	2
scalar cost_scenario_network.content_distribution 	repo-2 	3
scalar cost_scenario_network.content_distribution 	client-0 	0
scalar cost_scenario_network.content_distribution 	repo-0_card 	25183
scalar cost_scenario_network.content_distribution 	repo-0_price 	10
scalar cost_scenario_network.content_distribution 	repo-1_card 	24961
scalar cost_scenario_network.content_distribution 	repo-1_price 	1
scalar cost_scenario_network.content_distribution 	repo-2_card 	49856
scalar cost_scenario_network.content_distribution 	repo-2_price 	0
scalar cost_scenario_network.statistics 	repo_popularity[0] 	0.20870546248327
scalar cost_scenario_network.statistics 	repo_popularity[1] 	0.19977278169479
scalar cost_scenario_network.statistics 	repo_popularity[2] 	0.59152175582194
scalar cost_scenario_network.statistics 	stabilization_time 	6510.3
scalar cost_scenario_network.statistics 	p_hit 	0.17609468783344
scalar cost_scenario_network.statistics 	interests 	76533570.75
scalar cost_scenario_network.statistics 	data 	31528207.75
scalar cost_scenario_network.statistics 	hdistance 	1.401086699378
scalar cost_scenario_network.statistics 	avg_time 	0
scalar cost_scenario_network.statistics 	downloads 	180021452
scalar cost_scenario_network.statistics 	total_cost 	100938949
scalar cost_scenario_network.statistics 	total_replicas 	100000
scalar cost_scenario_network.statistics 	inner_hit 	0.29945665031076
scalar cost_scenario_network.statistics 	interests_sent 	180021452
scalar cost_scenario_network.node[0].core_layer 	interests[0] 	180021452
scalar cost_scenario_network.node[0].core_layer 	data[0] 	126112831
scalar cost_scenario_network.node[0].core_layer 	repo_int[0] 	126112831
scalar cost_scenario_network.node[0].content_store 	p_hit[0] 	0.29945665031076
scalar cost_scenario_network.node[0].content_store 	hits[0] 	53908621
scalar cost_scenario_network.node[0].content_store 	misses[0] 	126112831
scalar cost_scenario_network.node[0].content_store 	decision_yes[0] 	192156
scalar cost_scenario_network.node[0].content_store 	decision_no[0] 	125920675
scalar cost_scenario_network.node[0].content_store 	decision_ratio[0] 	0.001523683184941
scalar cost_scenario_network.node[0].content_store 	cache_value[0] 	12.775043605986
scalar cost_scenario_network.node[0].content_store 	average_price_of_cache[0] 	6.76
scalar cost_scenario_network.node[0].content_store 	correction_factor[0] 	0.0019047619047619
scalar cost_scenario_network.node[0].content_store 	kappa[0] 	1
scalar cost_scenario_network.node[1].core_layer 	interests[1] 	9035128
scalar cost_scenario_network.node[1].core_layer 	repo_load[1] 	9035128
scalar cost_scenario_network.node[1].core_layer 	data[1] 	0
scalar cost_scenario_network.node[1].content_store 	p_hit[1] 	0
scalar cost_scenario_network.node[1].content_store 	hits[1] 	0
scalar cost_scenario_network.node[1].content_store 	misses[1] 	9035128
scalar cost_scenario_network.node[1].content_store 	decision_yes[1] 	0
scalar cost_scenario_network.node[1].content_store 	decision_no[1] 	9035128
scalar cost_scenario_network.node[1].content_store 	decision_ratio[1] 	0
scalar cost_scenario_network.node[1].content_store 	cache_value[1] 	1.1803884398325e-316
scalar cost_scenario_network.node[1].content_store 	average_price_of_cache[1] 	-nan
scalar cost_scenario_network.node[1].content_store 	correction_factor[1] 	0.0019047619047619
scalar cost_scenario_network.node[1].content_store 	kappa[1] 	1
scalar cost_scenario_network.node[2].core_layer 	interests[2] 	10587669
scalar cost_scenario_network.node[2].core_layer 	repo_load[2] 	10587669
scalar cost_scenario_network.node[2].core_layer 	data[2] 	0
scalar cost_scenario_network.node[2].content_store 	p_hit[2] 	0
scalar cost_scenario_network.node[2].content_store 	hits[2] 	0
scalar cost_scenario_network.node[2].content_store 	misses[2] 	10587669
scalar cost_scenario_network.node[2].content_store 	decision_yes[2] 	0
scalar cost_scenario_network.node[2].content_store 	decision_no[2] 	10587669
scalar cost_scenario_network.node[2].content_store 	decision_ratio[2] 	0
scalar cost_scenario_network.node[2].content_store 	cache_value[2] 	1.1805473313442e-316
scalar cost_scenario_network.node[2].content_store 	average_price_of_cache[2] 	-nan
scalar cost_scenario_network.node[2].content_store 	correction_factor[2] 	0.0019047619047619
scalar cost_scenario_network.node[2].content_store 	kappa[2] 	1
scalar cost_scenario_network.node[3].core_layer 	interests[3] 	106490034
scalar cost_scenario_network.node[3].core_layer 	repo_load[3] 	106490034
scalar cost_scenario_network.node[3].core_layer 	data[3] 	0
scalar cost_scenario_network.node[3].content_store 	p_hit[3] 	0
scalar cost_scenario_network.node[3].content_store 	hits[3] 	0
scalar cost_scenario_network.node[3].content_store 	misses[3] 	106490034
scalar cost_scenario_network.node[3].content_store 	decision_yes[3] 	0
scalar cost_scenario_network.node[3].content_store 	decision_no[3] 	106490034
scalar cost_scenario_network.node[3].content_store 	decision_ratio[3] 	0
scalar cost_scenario_network.node[3].content_store 	cache_value[3] 	1.1807062228559e-316
scalar cost_scenario_network.node[3].content_store 	average_price_of_cache[3] 	-nan
scalar cost_scenario_network.node[3].content_store 	correction_factor[3] 	0.0019047619047619
scalar cost_scenario_network.node[3].content_store 	kappa[3] 	1
scalar cost_scenario_network.client[0] 	hdistance[0] 	1.401086699378
scalar cost_scenario_network.client[0] 	downloads[0] 	180021452
scalar cost_scenario_network.client[0] 	avg_time[0] 	0
scalar cost_scenario_network.client[0] 	interests_sent[0] 	180021452
