version 2
run General-2656-20140511-19:23:22-32194
attr D costprobprodcorr0.01
attr F nrr
attr R lru
attr a 0
attr configname General
attr csize 1e3
attr ctlg 1e5
attr datetime 20140511-19:23:22
attr experiment General
attr inifile omnetpp.ini
attr iterationvars "$net=one_cache_scenario_3_links, $rep=20, $priceratiovalue=5, $weights=0.333_0.333_0.334, $a=0, $ctlg=1e5, $F=nrr, $ttl=1000, $D=costprobprodcorr0.01, $xi=0.25, $R=lru, $csize=1e3"
attr iterationvars2 "$net=one_cache_scenario_3_links, $rep=20, $priceratiovalue=5, $weights=0.333_0.333_0.334, $a=0, $ctlg=1e5, $F=nrr, $ttl=1000, $D=costprobprodcorr0.01, $xi=0.25, $R=lru, $csize=1e3, $repetition=0"
attr measurement "$net=one_cache_scenario_3_links, $rep=20, $priceratiovalue=5, $weights=0.333_0.333_0.334, $a=0, $ctlg=1e5, $F=nrr, $ttl=1000, $D=costprobprodcorr0.01, $xi=0.25, $R=lru, $csize=1e3"
attr net one_cache_scenario_3_links
attr network networks.${net=one_cache_scenario_3_links}_network
attr priceratiovalue 5
attr processid 32194
attr rep 20
attr repetition 0
attr replication #0
attr resultdir results
attr runnumber 2656
attr seedset 20
attr ttl 1000
attr weights 0.333_0.333_0.334
attr xi 0.25

scalar . 	a 	0
scalar . 	csize 	1e3
scalar . 	ctlg 	1e5
scalar . 	priceratiovalue 	5
scalar . 	rep 	20
scalar . 	ttl 	1000
scalar . 	xi 	0.25
scalar one_cache_scenario_3_links_network.content_distribution 	repo-0 	4
scalar one_cache_scenario_3_links_network.content_distribution 	repo-1 	5
scalar one_cache_scenario_3_links_network.content_distribution 	repo-2 	6
scalar one_cache_scenario_3_links_network.content_distribution 	client-0 	0
scalar one_cache_scenario_3_links_network.content_distribution 	repo-0_card 	33321
scalar one_cache_scenario_3_links_network.content_distribution 	repo-1_card 	33296
scalar one_cache_scenario_3_links_network.content_distribution 	repo-2_card 	33383
scalar one_cache_scenario_3_links_network.statistics 	p_hit 	0.0033779939826568
scalar one_cache_scenario_3_links_network.statistics 	interests 	76588.142857143
scalar one_cache_scenario_3_links_network.statistics 	data 	50886.285714286
scalar one_cache_scenario_3_links_network.statistics 	hdistance 	1.979868047334
scalar one_cache_scenario_3_links_network.statistics 	avg_time 	0
scalar one_cache_scenario_3_links_network.statistics 	downloads 	179913
scalar one_cache_scenario_3_links_network.statistics 	total_cost 	353887
scalar one_cache_scenario_3_links_network.statistics 	total_replicas 	100000
scalar one_cache_scenario_3_links_network.statistics 	interests_sent 	179913
scalar one_cache_scenario_3_links_network.node[0].core_layer 	interests[0] 	179913
scalar one_cache_scenario_3_links_network.node[0].core_layer 	data[0] 	178102
scalar one_cache_scenario_3_links_network.node[0].core_layer 	repo_int[0] 	178102
scalar one_cache_scenario_3_links_network.node[0].content_store 	p_hit[0] 	0.010065976333005
scalar one_cache_scenario_3_links_network.node[0].content_store 	hits[0] 	1811
scalar one_cache_scenario_3_links_network.node[0].content_store 	misses[0] 	178102
scalar one_cache_scenario_3_links_network.node[0].content_store 	decision_yes[0] 	1625
scalar one_cache_scenario_3_links_network.node[0].content_store 	decision_no[0] 	176477
scalar one_cache_scenario_3_links_network.node[0].content_store 	decision_ratio[0] 	0.0091239851321153
scalar one_cache_scenario_3_links_network.node[0].content_store 	correction_factor[0] 	0.012012784106793
scalar one_cache_scenario_3_links_network.node[0].content_store 	xi[0] 	0.25
scalar one_cache_scenario_3_links_network.node[1].core_layer 	interests[1] 	60003
scalar one_cache_scenario_3_links_network.node[1].core_layer 	data[1] 	60003
scalar one_cache_scenario_3_links_network.node[1].content_store 	p_hit[1] 	0
scalar one_cache_scenario_3_links_network.node[1].content_store 	hits[1] 	0
scalar one_cache_scenario_3_links_network.node[1].content_store 	misses[1] 	60003
scalar one_cache_scenario_3_links_network.node[1].content_store 	decision_yes[1] 	0
scalar one_cache_scenario_3_links_network.node[1].content_store 	decision_no[1] 	60003
scalar one_cache_scenario_3_links_network.node[1].content_store 	decision_ratio[1] 	0
scalar one_cache_scenario_3_links_network.node[2].core_layer 	interests[2] 	59152
scalar one_cache_scenario_3_links_network.node[2].core_layer 	data[2] 	59152
scalar one_cache_scenario_3_links_network.node[2].content_store 	p_hit[2] 	0
scalar one_cache_scenario_3_links_network.node[2].content_store 	hits[2] 	0
scalar one_cache_scenario_3_links_network.node[2].content_store 	misses[2] 	59152
scalar one_cache_scenario_3_links_network.node[2].content_store 	decision_yes[2] 	0
scalar one_cache_scenario_3_links_network.node[2].content_store 	decision_no[2] 	59152
scalar one_cache_scenario_3_links_network.node[2].content_store 	decision_ratio[2] 	0
scalar one_cache_scenario_3_links_network.node[3].core_layer 	interests[3] 	58947
scalar one_cache_scenario_3_links_network.node[3].core_layer 	data[3] 	58947
scalar one_cache_scenario_3_links_network.node[3].content_store 	p_hit[3] 	0
scalar one_cache_scenario_3_links_network.node[3].content_store 	hits[3] 	0
scalar one_cache_scenario_3_links_network.node[3].content_store 	misses[3] 	58947
scalar one_cache_scenario_3_links_network.node[3].content_store 	decision_yes[3] 	0
scalar one_cache_scenario_3_links_network.node[3].content_store 	decision_no[3] 	58947
scalar one_cache_scenario_3_links_network.node[3].content_store 	decision_ratio[3] 	0
scalar one_cache_scenario_3_links_network.node[4].core_layer 	interests[4] 	60003
scalar one_cache_scenario_3_links_network.node[4].core_layer 	repo_load[4] 	60003
scalar one_cache_scenario_3_links_network.node[4].core_layer 	data[4] 	0
scalar one_cache_scenario_3_links_network.node[4].content_store 	p_hit[4] 	0
scalar one_cache_scenario_3_links_network.node[4].content_store 	hits[4] 	0
scalar one_cache_scenario_3_links_network.node[4].content_store 	misses[4] 	60003
scalar one_cache_scenario_3_links_network.node[4].content_store 	decision_yes[4] 	0
scalar one_cache_scenario_3_links_network.node[4].content_store 	decision_no[4] 	60003
scalar one_cache_scenario_3_links_network.node[4].content_store 	decision_ratio[4] 	0
scalar one_cache_scenario_3_links_network.node[5].core_layer 	interests[5] 	59152
scalar one_cache_scenario_3_links_network.node[5].core_layer 	repo_load[5] 	59152
scalar one_cache_scenario_3_links_network.node[5].core_layer 	data[5] 	0
scalar one_cache_scenario_3_links_network.node[5].content_store 	p_hit[5] 	0
scalar one_cache_scenario_3_links_network.node[5].content_store 	hits[5] 	0
scalar one_cache_scenario_3_links_network.node[5].content_store 	misses[5] 	59152
scalar one_cache_scenario_3_links_network.node[5].content_store 	decision_yes[5] 	0
scalar one_cache_scenario_3_links_network.node[5].content_store 	decision_no[5] 	59152
scalar one_cache_scenario_3_links_network.node[5].content_store 	decision_ratio[5] 	0
scalar one_cache_scenario_3_links_network.node[6].core_layer 	interests[6] 	58947
scalar one_cache_scenario_3_links_network.node[6].core_layer 	repo_load[6] 	58947
scalar one_cache_scenario_3_links_network.node[6].core_layer 	data[6] 	0
scalar one_cache_scenario_3_links_network.node[6].content_store 	p_hit[6] 	0
scalar one_cache_scenario_3_links_network.node[6].content_store 	hits[6] 	0
scalar one_cache_scenario_3_links_network.node[6].content_store 	misses[6] 	58947
scalar one_cache_scenario_3_links_network.node[6].content_store 	decision_yes[6] 	0
scalar one_cache_scenario_3_links_network.node[6].content_store 	decision_no[6] 	58947
scalar one_cache_scenario_3_links_network.node[6].content_store 	decision_ratio[6] 	0
scalar one_cache_scenario_3_links_network.client[0] 	hdistance[0] 	1.979868047334
scalar one_cache_scenario_3_links_network.client[0] 	downloads[0] 	179913
scalar one_cache_scenario_3_links_network.client[0] 	avg_time[0] 	0
scalar one_cache_scenario_3_links_network.client[0] 	interests_sent[0] 	179913
