version 2
run General-4-20141007-10:58:36-448
attr D costaware0.001
attr F spr
attr R lru
attr a 1
attr configname General
attr csize 1e3
attr ctlg 1e5
attr datetime 20141007-10:58:36
attr experiment General
attr inifile omnetpp.ini
attr iterationvars "$net=abilene_cost, $rep=4, $priceratiovalue=10, $weights=0.333_0.333_0.334, $lambda=100, $a=1, $ctlg=1e5, $F=spr, $ttl=10, $D=costaware0.001, $xi=1, $R=lru, $csize=1e3, $pricebits=0, $window=60, $variance=0.05, $mytime=1800"
attr iterationvars2 "$net=abilene_cost, $rep=4, $priceratiovalue=10, $weights=0.333_0.333_0.334, $lambda=100, $a=1, $ctlg=1e5, $F=spr, $ttl=10, $D=costaware0.001, $xi=1, $R=lru, $csize=1e3, $pricebits=0, $window=60, $variance=0.05, $mytime=1800, $repetition=0"
attr lambda 100
attr measurement "$net=abilene_cost, $rep=4, $priceratiovalue=10, $weights=0.333_0.333_0.334, $lambda=100, $a=1, $ctlg=1e5, $F=spr, $ttl=10, $D=costaware0.001, $xi=1, $R=lru, $csize=1e3, $pricebits=0, $window=60, $variance=0.05, $mytime=1800"
attr mytime 1800
attr net abilene_cost
attr network networks.${net=abilene_cost,geant_cost}_network
attr pricebits 0
attr priceratiovalue 10
attr processid 448
attr rep 4
attr repetition 0
attr replication #0
attr resultdir results
attr runnumber 4
attr seedset 4
attr ttl 10
attr variance 0.05
attr weights 0.333_0.333_0.334
attr window 60
attr xi 1

scalar . 	a 	1
scalar . 	csize 	1e3
scalar . 	ctlg 	1e5
scalar . 	lambda 	100
scalar . 	mytime 	1800
scalar . 	pricebits 	0
scalar . 	priceratiovalue 	10
scalar . 	rep 	4
scalar . 	ttl 	10
scalar . 	variance 	0.05
scalar . 	window 	60
scalar . 	xi 	1
scalar abilene_cost_network.content_distribution 	repo-0 	2
scalar abilene_cost_network.content_distribution 	repo-1 	0
scalar abilene_cost_network.content_distribution 	repo-2 	10
scalar abilene_cost_network.content_distribution 	client-0 	6
scalar abilene_cost_network.content_distribution 	client-1 	2
scalar abilene_cost_network.content_distribution 	client-2 	4
scalar abilene_cost_network.content_distribution 	repo-0_card 	33274
scalar abilene_cost_network.content_distribution 	repo-0_price 	0
scalar abilene_cost_network.content_distribution 	repo-1_card 	33153
scalar abilene_cost_network.content_distribution 	repo-1_price 	1
scalar abilene_cost_network.content_distribution 	repo-2_card 	33573
scalar abilene_cost_network.content_distribution 	repo-2_price 	10
scalar abilene_cost_network.statistics 	repo_popularity[0] 	0.33945880017902
scalar abilene_cost_network.statistics 	repo_popularity[1] 	0.30988277584688
scalar abilene_cost_network.statistics 	repo_popularity[2] 	0.35065842397411
scalar abilene_cost_network.statistics 	stabilization_time 	36060
scalar abilene_cost_network.statistics 	p_hit 	0.10704834457193
scalar abilene_cost_network.statistics 	interests 	166781.90909091
scalar abilene_cost_network.statistics 	data 	117691.36363636
scalar abilene_cost_network.statistics 	hdistance 	3.0682601601369
scalar abilene_cost_network.statistics 	avg_time 	0.014503700705
scalar abilene_cost_network.statistics 	downloads 	533626
scalar abilene_cost_network.statistics 	total_cost 	842918
scalar abilene_cost_network.statistics 	total_replicas 	100000
scalar abilene_cost_network.statistics 	inner_hit 	0.37398852379757
scalar abilene_cost_network.node[0].core_layer 	interests[0] 	99411
scalar abilene_cost_network.node[0].core_layer 	repo_load[0] 	77458
scalar abilene_cost_network.node[0].core_layer 	data[0] 	0
scalar abilene_cost_network.node[0].core_layer 	repo_int[0] 	334056
scalar abilene_cost_network.node[0].content_store 	p_hit[0] 	0.22083069278048
scalar abilene_cost_network.node[0].content_store 	hits[0] 	21953
scalar abilene_cost_network.node[0].content_store 	misses[0] 	77458
scalar abilene_cost_network.node[0].content_store 	decision_yes[0] 	22
scalar abilene_cost_network.node[0].content_store 	decision_no[0] 	77436
scalar abilene_cost_network.node[0].content_store 	decision_ratio[0] 	0.00028402489090862
scalar abilene_cost_network.node[0].content_store 	correction_factor[0] 	0.00027225701061802
scalar abilene_cost_network.node[0].content_store 	kappa[0] 	1
scalar abilene_cost_network.node[1].core_layer 	interests[1] 	237664
scalar abilene_cost_network.node[1].core_layer 	data[1] 	193970
scalar abilene_cost_network.node[1].content_store 	p_hit[1] 	0.18385620035007
scalar abilene_cost_network.node[1].content_store 	hits[1] 	43696
scalar abilene_cost_network.node[1].content_store 	misses[1] 	193968
scalar abilene_cost_network.node[1].content_store 	decision_yes[1] 	177
scalar abilene_cost_network.node[1].content_store 	decision_no[1] 	193793
scalar abilene_cost_network.node[1].content_store 	decision_ratio[1] 	0.00091251224416147
scalar abilene_cost_network.node[1].content_store 	correction_factor[1] 	0.00027225701061802
scalar abilene_cost_network.node[1].content_store 	kappa[1] 	1
scalar abilene_cost_network.node[2].core_layer 	interests[2] 	448273
scalar abilene_cost_network.node[2].core_layer 	repo_load[2] 	180052
scalar abilene_cost_network.node[2].core_layer 	data[2] 	237666
scalar abilene_cost_network.node[2].content_store 	p_hit[2] 	0.061946626274614
scalar abilene_cost_network.node[2].content_store 	hits[2] 	27769
scalar abilene_cost_network.node[2].content_store 	misses[2] 	420504
scalar abilene_cost_network.node[2].content_store 	decision_yes[2] 	178
scalar abilene_cost_network.node[2].content_store 	decision_no[2] 	417540
scalar abilene_cost_network.node[2].content_store 	decision_ratio[2] 	0.00042612480189985
scalar abilene_cost_network.node[2].content_store 	correction_factor[2] 	0.00027225701061802
scalar abilene_cost_network.node[2].content_store 	kappa[2] 	1
scalar abilene_cost_network.node[3].core_layer 	interests[3] 	286374
scalar abilene_cost_network.node[3].core_layer 	data[3] 	268371
scalar abilene_cost_network.node[3].content_store 	p_hit[3] 	0.058231543366367
scalar abilene_cost_network.node[3].content_store 	hits[3] 	16676
scalar abilene_cost_network.node[3].content_store 	misses[3] 	269698
scalar abilene_cost_network.node[3].content_store 	decision_yes[3] 	64
scalar abilene_cost_network.node[3].content_store 	decision_no[3] 	268307
scalar abilene_cost_network.node[3].content_store 	decision_ratio[3] 	0.00023847584127942
scalar abilene_cost_network.node[3].content_store 	correction_factor[3] 	0.00027225701061802
scalar abilene_cost_network.node[3].content_store 	kappa[3] 	1
scalar abilene_cost_network.node[4].core_layer 	interests[4] 	180072
scalar abilene_cost_network.node[4].core_layer 	data[4] 	174492
scalar abilene_cost_network.node[4].content_store 	p_hit[4] 	0.019414456439646
scalar abilene_cost_network.node[4].content_store 	hits[4] 	3496
scalar abilene_cost_network.node[4].content_store 	misses[4] 	176576
scalar abilene_cost_network.node[4].content_store 	decision_yes[4] 	67
scalar abilene_cost_network.node[4].content_store 	decision_no[4] 	174425
scalar abilene_cost_network.node[4].content_store 	decision_ratio[4] 	0.00038397175801756
scalar abilene_cost_network.node[4].content_store 	correction_factor[4] 	0.00027225701061802
scalar abilene_cost_network.node[4].content_store 	kappa[4] 	1
scalar abilene_cost_network.node[5].core_layer 	interests[5] 	0
scalar abilene_cost_network.node[5].core_layer 	data[5] 	0
scalar abilene_cost_network.node[5].content_store 	p_hit[5] 	-nan
scalar abilene_cost_network.node[5].content_store 	hits[5] 	0
scalar abilene_cost_network.node[5].content_store 	misses[5] 	0
scalar abilene_cost_network.node[5].content_store 	decision_yes[5] 	0
scalar abilene_cost_network.node[5].content_store 	decision_no[5] 	0
scalar abilene_cost_network.node[5].content_store 	decision_ratio[5] 	0
scalar abilene_cost_network.node[5].content_store 	correction_factor[5] 	0.00027225701061802
scalar abilene_cost_network.node[5].content_store 	kappa[5] 	1
scalar abilene_cost_network.node[6].core_layer 	interests[6] 	180033
scalar abilene_cost_network.node[6].core_layer 	data[6] 	170290
scalar abilene_cost_network.node[6].content_store 	p_hit[6] 	0.0354601656363
scalar abilene_cost_network.node[6].content_store 	hits[6] 	6384
scalar abilene_cost_network.node[6].content_store 	misses[6] 	173649
scalar abilene_cost_network.node[6].content_store 	decision_yes[6] 	78
scalar abilene_cost_network.node[6].content_store 	decision_no[6] 	170212
scalar abilene_cost_network.node[6].content_store 	decision_ratio[6] 	0.00045804216336837
scalar abilene_cost_network.node[6].content_store 	correction_factor[6] 	0.00027225701061802
scalar abilene_cost_network.node[6].content_store 	kappa[6] 	1
scalar abilene_cost_network.node[7].core_layer 	interests[7] 	170287
scalar abilene_cost_network.node[7].core_layer 	data[7] 	166075
scalar abilene_cost_network.node[7].content_store 	p_hit[7] 	0.024752329890127
scalar abilene_cost_network.node[7].content_store 	hits[7] 	4215
scalar abilene_cost_network.node[7].content_store 	misses[7] 	166072
scalar abilene_cost_network.node[7].content_store 	decision_yes[7] 	67
scalar abilene_cost_network.node[7].content_store 	decision_no[7] 	166008
scalar abilene_cost_network.node[7].content_store 	decision_ratio[7] 	0.0004034321842541
scalar abilene_cost_network.node[7].content_store 	correction_factor[7] 	0.00027225701061802
scalar abilene_cost_network.node[7].content_store 	kappa[7] 	1
scalar abilene_cost_network.node[8].core_layer 	interests[8] 	54190
scalar abilene_cost_network.node[8].core_layer 	data[8] 	43165
scalar abilene_cost_network.node[8].content_store 	p_hit[8] 	0.20346927477394
scalar abilene_cost_network.node[8].content_store 	hits[8] 	11026
scalar abilene_cost_network.node[8].content_store 	misses[8] 	43164
scalar abilene_cost_network.node[8].content_store 	decision_yes[8] 	61
scalar abilene_cost_network.node[8].content_store 	decision_no[8] 	43104
scalar abilene_cost_network.node[8].content_store 	decision_ratio[8] 	0.0014131819761381
scalar abilene_cost_network.node[8].content_store 	correction_factor[8] 	0.00027225701061802
scalar abilene_cost_network.node[8].content_store 	kappa[8] 	1
scalar abilene_cost_network.node[9].core_layer 	interests[9] 	43164
scalar abilene_cost_network.node[9].core_layer 	data[9] 	40576
scalar abilene_cost_network.node[9].content_store 	p_hit[9] 	0.059980539338338
scalar abilene_cost_network.node[9].content_store 	hits[9] 	2589
scalar abilene_cost_network.node[9].content_store 	misses[9] 	40575
scalar abilene_cost_network.node[9].content_store 	decision_yes[9] 	63
scalar abilene_cost_network.node[9].content_store 	decision_no[9] 	40513
scalar abilene_cost_network.node[9].content_store 	decision_ratio[9] 	0.001552641955836
scalar abilene_cost_network.node[9].content_store 	correction_factor[9] 	0.00027225701061802
scalar abilene_cost_network.node[9].content_store 	kappa[9] 	1
scalar abilene_cost_network.node[10].core_layer 	interests[10] 	135133
scalar abilene_cost_network.node[10].core_layer 	repo_load[10] 	76546
scalar abilene_cost_network.node[10].core_layer 	data[10] 	0
scalar abilene_cost_network.node[10].content_store 	p_hit[10] 	0.43355065010027
scalar abilene_cost_network.node[10].content_store 	hits[10] 	58587
scalar abilene_cost_network.node[10].content_store 	misses[10] 	76546
scalar abilene_cost_network.node[10].content_store 	decision_yes[10] 	190
scalar abilene_cost_network.node[10].content_store 	decision_no[10] 	76356
scalar abilene_cost_network.node[10].content_store 	decision_ratio[10] 	0.0024821675855041
scalar abilene_cost_network.node[10].content_store 	correction_factor[10] 	0.00027225701061802
scalar abilene_cost_network.node[10].content_store 	kappa[10] 	1
scalar abilene_cost_network.client[2] 	hdistance[2] 	1.7107127690485
scalar abilene_cost_network.client[2] 	downloads[2] 	178964
scalar abilene_cost_network.client[2] 	avg_time[2] 	0.008465914991
scalar abilene_cost_network.client[4] 	hdistance[4] 	3.5084331527968
scalar abilene_cost_network.client[4] 	downloads[4] 	177988
scalar abilene_cost_network.client[4] 	avg_time[4] 	0.013915929303
scalar abilene_cost_network.client[6] 	hdistance[6] 	3.9856345585655
scalar abilene_cost_network.client[6] 	downloads[6] 	176674
scalar abilene_cost_network.client[6] 	avg_time[6] 	0.021129257821
