version 2
run General-4-20141007-10:51:46-14854
attr D costaware0.001
attr F spr
attr R lru
attr a 1
attr configname General
attr csize 1e3
attr ctlg 1e5
attr datetime 20141007-10:51:46
attr experiment General
attr inifile omnetpp.ini
attr iterationvars "$net=abilene_cost, $rep=5, $priceratiovalue=10, $weights=0.333_0.333_0.334, $lambda=100, $a=1, $ctlg=1e5, $F=spr, $ttl=10, $D=costaware0.001, $xi=1, $R=lru, $csize=1e3, $pricebits=0, $window=60, $variance=0.05, $mytime=1800"
attr iterationvars2 "$net=abilene_cost, $rep=5, $priceratiovalue=10, $weights=0.333_0.333_0.334, $lambda=100, $a=1, $ctlg=1e5, $F=spr, $ttl=10, $D=costaware0.001, $xi=1, $R=lru, $csize=1e3, $pricebits=0, $window=60, $variance=0.05, $mytime=1800, $repetition=0"
attr lambda 100
attr measurement "$net=abilene_cost, $rep=5, $priceratiovalue=10, $weights=0.333_0.333_0.334, $lambda=100, $a=1, $ctlg=1e5, $F=spr, $ttl=10, $D=costaware0.001, $xi=1, $R=lru, $csize=1e3, $pricebits=0, $window=60, $variance=0.05, $mytime=1800"
attr mytime 1800
attr net abilene_cost
attr network networks.${net=abilene_cost,geant_cost}_network
attr pricebits 0
attr priceratiovalue 10
attr processid 14854
attr rep 5
attr repetition 0
attr replication #0
attr resultdir results
attr runnumber 4
attr seedset 5
attr ttl 10
attr variance 0.05
attr weights 0.333_0.333_0.334
attr window 60
attr xi 1

scalar . 	a 	1
scalar . 	csize 	1e3
scalar . 	ctlg 	1e5
scalar . 	lambda 	100
scalar . 	mytime 	1800
scalar . 	pricebits 	0
scalar . 	priceratiovalue 	10
scalar . 	rep 	5
scalar . 	ttl 	10
scalar . 	variance 	0.05
scalar . 	window 	60
scalar . 	xi 	1
scalar abilene_cost_network.content_distribution 	repo-0 	9
scalar abilene_cost_network.content_distribution 	repo-1 	5
scalar abilene_cost_network.content_distribution 	repo-2 	1
scalar abilene_cost_network.content_distribution 	client-0 	4
scalar abilene_cost_network.content_distribution 	client-1 	9
scalar abilene_cost_network.content_distribution 	client-2 	0
scalar abilene_cost_network.content_distribution 	repo-0_card 	33098
scalar abilene_cost_network.content_distribution 	repo-0_price 	1
scalar abilene_cost_network.content_distribution 	repo-1_card 	33495
scalar abilene_cost_network.content_distribution 	repo-1_price 	10
scalar abilene_cost_network.content_distribution 	repo-2_card 	33407
scalar abilene_cost_network.content_distribution 	repo-2_price 	0
scalar abilene_cost_network.statistics 	repo_popularity[0] 	0.31037770261398
scalar abilene_cost_network.statistics 	repo_popularity[1] 	0.29913869324176
scalar abilene_cost_network.statistics 	repo_popularity[2] 	0.39048360414427
scalar abilene_cost_network.statistics 	stabilization_time 	14839.8
scalar abilene_cost_network.statistics 	p_hit 	0.097443002835394
scalar abilene_cost_network.statistics 	interests 	148480.27272727
scalar abilene_cost_network.statistics 	data 	99474.727272727
scalar abilene_cost_network.statistics 	hdistance 	2.7574426216921
scalar abilene_cost_network.statistics 	avg_time 	0.013604951817
scalar abilene_cost_network.statistics 	downloads 	532046
scalar abilene_cost_network.statistics 	total_cost 	838167
scalar abilene_cost_network.statistics 	total_replicas 	100000
scalar abilene_cost_network.statistics 	inner_hit 	0.29915646391477
scalar abilene_cost_network.node[0].core_layer 	interests[0] 	179207
scalar abilene_cost_network.node[0].core_layer 	data[0] 	165684
scalar abilene_cost_network.node[0].core_layer 	repo_int[0] 	372881
scalar abilene_cost_network.node[0].content_store 	p_hit[0] 	0.062854687595909
scalar abilene_cost_network.node[0].content_store 	hits[0] 	11264
scalar abilene_cost_network.node[0].content_store 	misses[0] 	167943
scalar abilene_cost_network.node[0].content_store 	decision_yes[0] 	80
scalar abilene_cost_network.node[0].content_store 	decision_no[0] 	165604
scalar abilene_cost_network.node[0].content_store 	decision_ratio[0] 	0.00048284686511673
scalar abilene_cost_network.node[0].content_store 	correction_factor[0] 	0.00027225701061802
scalar abilene_cost_network.node[0].content_store 	kappa[0] 	1
scalar abilene_cost_network.node[1].core_layer 	interests[1] 	256199
scalar abilene_cost_network.node[1].core_layer 	repo_load[1] 	206339
scalar abilene_cost_network.node[1].core_layer 	data[1] 	45419
scalar abilene_cost_network.node[1].content_store 	p_hit[1] 	0.017330278416387
scalar abilene_cost_network.node[1].content_store 	hits[1] 	4440
scalar abilene_cost_network.node[1].content_store 	misses[1] 	251759
scalar abilene_cost_network.node[1].content_store 	decision_yes[1] 	74
scalar abilene_cost_network.node[1].content_store 	decision_no[1] 	251684
scalar abilene_cost_network.node[1].content_store 	decision_ratio[1] 	0.00029393306270307
scalar abilene_cost_network.node[1].content_store 	correction_factor[1] 	0.00027225701061802
scalar abilene_cost_network.node[1].content_store 	kappa[1] 	1
scalar abilene_cost_network.node[2].core_layer 	interests[2] 	165539
scalar abilene_cost_network.node[2].core_layer 	data[2] 	159681
scalar abilene_cost_network.node[2].content_store 	p_hit[2] 	0.035375349615498
scalar abilene_cost_network.node[2].content_store 	hits[2] 	5856
scalar abilene_cost_network.node[2].content_store 	misses[2] 	159683
scalar abilene_cost_network.node[2].content_store 	decision_yes[2] 	63
scalar abilene_cost_network.node[2].content_store 	decision_no[2] 	159618
scalar abilene_cost_network.node[2].content_store 	decision_ratio[2] 	0.00039453660736093
scalar abilene_cost_network.node[2].content_store 	correction_factor[2] 	0.00027225701061802
scalar abilene_cost_network.node[2].content_store 	kappa[2] 	1
scalar abilene_cost_network.node[3].core_layer 	interests[3] 	165199
scalar abilene_cost_network.node[3].core_layer 	data[3] 	154204
scalar abilene_cost_network.node[3].content_store 	p_hit[3] 	0.06655003964915
scalar abilene_cost_network.node[3].content_store 	hits[3] 	10994
scalar abilene_cost_network.node[3].content_store 	misses[3] 	154205
scalar abilene_cost_network.node[3].content_store 	decision_yes[3] 	68
scalar abilene_cost_network.node[3].content_store 	decision_no[3] 	154136
scalar abilene_cost_network.node[3].content_store 	decision_ratio[3] 	0.00044097429379264
scalar abilene_cost_network.node[3].content_store 	correction_factor[3] 	0.00027225701061802
scalar abilene_cost_network.node[3].content_store 	kappa[3] 	1
scalar abilene_cost_network.node[4].core_layer 	interests[4] 	214108
scalar abilene_cost_network.node[4].core_layer 	data[4] 	194622
scalar abilene_cost_network.node[4].content_store 	p_hit[4] 	0.079352476320362
scalar abilene_cost_network.node[4].content_store 	hits[4] 	16990
scalar abilene_cost_network.node[4].content_store 	misses[4] 	197118
scalar abilene_cost_network.node[4].content_store 	decision_yes[4] 	143
scalar abilene_cost_network.node[4].content_store 	decision_no[4] 	194479
scalar abilene_cost_network.node[4].content_store 	decision_ratio[4] 	0.0007347576327445
scalar abilene_cost_network.node[4].content_store 	correction_factor[4] 	0.00027225701061802
scalar abilene_cost_network.node[4].content_store 	kappa[4] 	1
scalar abilene_cost_network.node[5].core_layer 	interests[5] 	102327
scalar abilene_cost_network.node[5].core_layer 	repo_load[5] 	74625
scalar abilene_cost_network.node[5].core_layer 	data[5] 	0
scalar abilene_cost_network.node[5].content_store 	p_hit[5] 	0.27072033774077
scalar abilene_cost_network.node[5].content_store 	hits[5] 	27702
scalar abilene_cost_network.node[5].content_store 	misses[5] 	74625
scalar abilene_cost_network.node[5].content_store 	decision_yes[5] 	212
scalar abilene_cost_network.node[5].content_store 	decision_no[5] 	74413
scalar abilene_cost_network.node[5].content_store 	decision_ratio[5] 	0.0028408710217755
scalar abilene_cost_network.node[5].content_store 	correction_factor[5] 	0.00027225701061802
scalar abilene_cost_network.node[5].content_store 	kappa[5] 	1
scalar abilene_cost_network.node[6].core_layer 	interests[6] 	35561
scalar abilene_cost_network.node[6].core_layer 	data[6] 	29634
scalar abilene_cost_network.node[6].content_store 	p_hit[6] 	0.166671353449
scalar abilene_cost_network.node[6].content_store 	hits[6] 	5927
scalar abilene_cost_network.node[6].content_store 	misses[6] 	29634
scalar abilene_cost_network.node[6].content_store 	decision_yes[6] 	64
scalar abilene_cost_network.node[6].content_store 	decision_no[6] 	29570
scalar abilene_cost_network.node[6].content_store 	decision_ratio[6] 	0.0021596814469866
scalar abilene_cost_network.node[6].content_store 	correction_factor[6] 	0.00027225701061802
scalar abilene_cost_network.node[6].content_store 	kappa[6] 	1
scalar abilene_cost_network.node[7].core_layer 	interests[7] 	40684
scalar abilene_cost_network.node[7].core_layer 	data[7] 	35561
scalar abilene_cost_network.node[7].content_store 	p_hit[7] 	0.12592173827549
scalar abilene_cost_network.node[7].content_store 	hits[7] 	5123
scalar abilene_cost_network.node[7].content_store 	misses[7] 	35561
scalar abilene_cost_network.node[7].content_store 	decision_yes[7] 	54
scalar abilene_cost_network.node[7].content_store 	decision_no[7] 	35507
scalar abilene_cost_network.node[7].content_store 	decision_ratio[7] 	0.0015185174770113
scalar abilene_cost_network.node[7].content_store 	correction_factor[7] 	0.00027225701061802
scalar abilene_cost_network.node[7].content_store 	kappa[7] 	1
scalar abilene_cost_network.node[8].core_layer 	interests[8] 	99221
scalar abilene_cost_network.node[8].core_layer 	data[8] 	81178
scalar abilene_cost_network.node[8].content_store 	p_hit[8] 	0.18183650638474
scalar abilene_cost_network.node[8].content_store 	hits[8] 	18042
scalar abilene_cost_network.node[8].content_store 	misses[8] 	81179
scalar abilene_cost_network.node[8].content_store 	decision_yes[8] 	76
scalar abilene_cost_network.node[8].content_store 	decision_no[8] 	81102
scalar abilene_cost_network.node[8].content_store 	decision_ratio[8] 	0.00093621424523886
scalar abilene_cost_network.node[8].content_store 	correction_factor[8] 	0.00027225701061802
scalar abilene_cost_network.node[8].content_store 	kappa[8] 	1
scalar abilene_cost_network.node[9].core_layer 	interests[9] 	259941
scalar abilene_cost_network.node[9].core_layer 	repo_load[9] 	91917
scalar abilene_cost_network.node[9].core_layer 	data[9] 	119969
scalar abilene_cost_network.node[9].content_store 	p_hit[9] 	0.17613997022401
scalar abilene_cost_network.node[9].content_store 	hits[9] 	45786
scalar abilene_cost_network.node[9].content_store 	misses[9] 	214155
scalar abilene_cost_network.node[9].content_store 	decision_yes[9] 	97
scalar abilene_cost_network.node[9].content_store 	decision_no[9] 	211789
scalar abilene_cost_network.node[9].content_store 	decision_ratio[9] 	0.00045779334170261
scalar abilene_cost_network.node[9].content_store 	correction_factor[9] 	0.00027225701061802
scalar abilene_cost_network.node[9].content_store 	kappa[9] 	1
scalar abilene_cost_network.node[10].core_layer 	interests[10] 	115297
scalar abilene_cost_network.node[10].core_layer 	data[10] 	108270
scalar abilene_cost_network.node[10].content_store 	p_hit[10] 	0.060955618966669
scalar abilene_cost_network.node[10].content_store 	hits[10] 	7028
scalar abilene_cost_network.node[10].content_store 	misses[10] 	108269
scalar abilene_cost_network.node[10].content_store 	decision_yes[10] 	11
scalar abilene_cost_network.node[10].content_store 	decision_no[10] 	108259
scalar abilene_cost_network.node[10].content_store 	decision_ratio[10] 	0.00010159785720883
scalar abilene_cost_network.node[10].content_store 	correction_factor[10] 	0.00027225701061802
scalar abilene_cost_network.node[10].content_store 	kappa[10] 	1
scalar abilene_cost_network.client[0] 	hdistance[0] 	2.6982898930759
scalar abilene_cost_network.client[0] 	downloads[0] 	176948
scalar abilene_cost_network.client[0] 	avg_time[0] 	0.014320803561
scalar abilene_cost_network.client[4] 	hdistance[4] 	3.2061540367913
scalar abilene_cost_network.client[4] 	downloads[4] 	177542
scalar abilene_cost_network.client[4] 	avg_time[4] 	0.013866963623
scalar abilene_cost_network.client[9] 	hdistance[9] 	2.3678839352092
scalar abilene_cost_network.client[9] 	downloads[9] 	177556
scalar abilene_cost_network.client[9] 	avg_time[9] 	0.012627088269
