version 2
run General-2-20140904-11:12:00-24375
attr D lce
attr F spr
attr R lru
attr a 1
attr configname General
attr csize 1e3
attr ctlg 1e5
attr datetime 20140904-11:12:00
attr experiment General
attr inifile omnetpp.ini
attr iterationvars "$net=abilene_cost, $rep=1, $priceratiovalue=10, $weights=0.333_0.333_0.334, $lambda=100, $a=1, $ctlg=1e5, $F=spr, $ttl=10, $D=lce, $xi=1, $R=lru, $csize=1e3, $pricebits=0, $window=60, $variance=0.05, $mytime=1800"
attr iterationvars2 "$net=abilene_cost, $rep=1, $priceratiovalue=10, $weights=0.333_0.333_0.334, $lambda=100, $a=1, $ctlg=1e5, $F=spr, $ttl=10, $D=lce, $xi=1, $R=lru, $csize=1e3, $pricebits=0, $window=60, $variance=0.05, $mytime=1800, $repetition=0"
attr lambda 100
attr measurement "$net=abilene_cost, $rep=1, $priceratiovalue=10, $weights=0.333_0.333_0.334, $lambda=100, $a=1, $ctlg=1e5, $F=spr, $ttl=10, $D=lce, $xi=1, $R=lru, $csize=1e3, $pricebits=0, $window=60, $variance=0.05, $mytime=1800"
attr mytime 1800
attr net abilene_cost
attr network networks.${net=abilene_cost}_network
attr pricebits 0
attr priceratiovalue 10
attr processid 24375
attr rep 1
attr repetition 0
attr replication #0
attr resultdir results
attr runnumber 2
attr seedset 1
attr ttl 10
attr variance 0.05
attr weights 0.333_0.333_0.334
attr window 60
attr xi 1

scalar . 	a 	1
scalar . 	csize 	1e3
scalar . 	ctlg 	1e5
scalar . 	lambda 	100
scalar . 	mytime 	1800
scalar . 	pricebits 	0
scalar . 	priceratiovalue 	10
scalar . 	rep 	1
scalar . 	ttl 	10
scalar . 	variance 	0.05
scalar . 	window 	60
scalar . 	xi 	1
scalar abilene_cost_network.content_distribution 	repo-0 	10
scalar abilene_cost_network.content_distribution 	repo-1 	7
scalar abilene_cost_network.content_distribution 	repo-2 	5
scalar abilene_cost_network.content_distribution 	client-0 	8
scalar abilene_cost_network.content_distribution 	client-1 	7
scalar abilene_cost_network.content_distribution 	client-2 	2
scalar abilene_cost_network.content_distribution 	repo-0_card 	33397
scalar abilene_cost_network.content_distribution 	repo-0_price 	0
scalar abilene_cost_network.content_distribution 	repo-1_card 	33041
scalar abilene_cost_network.content_distribution 	repo-1_price 	10
scalar abilene_cost_network.content_distribution 	repo-2_card 	33562
scalar abilene_cost_network.content_distribution 	repo-2_price 	1
scalar abilene_cost_network.statistics 	repo_popularity[0] 	0.36106327575467
scalar abilene_cost_network.statistics 	repo_popularity[1] 	0.3490006524958
scalar abilene_cost_network.statistics 	repo_popularity[2] 	0.28993607174955
scalar abilene_cost_network.statistics 	stabilization_time 	36060
scalar abilene_cost_network.statistics 	p_hit 	0.15433669499175
scalar abilene_cost_network.statistics 	interests 	116825.45454545
scalar abilene_cost_network.statistics 	data 	67748.363636364
scalar abilene_cost_network.statistics 	hdistance 	2.0139328656588
scalar abilene_cost_network.statistics 	avg_time 	0.008883598907
scalar abilene_cost_network.statistics 	downloads 	539351
scalar abilene_cost_network.statistics 	total_cost 	1322225
scalar abilene_cost_network.statistics 	total_replicas 	100000
scalar abilene_cost_network.statistics 	inner_hit 	0.36807570580197
scalar abilene_cost_network.statistics 	interests_sent 	539850
scalar abilene_cost_network.node[0].core_layer 	interests[0] 	0
scalar abilene_cost_network.node[0].core_layer 	data[0] 	0
scalar abilene_cost_network.node[0].core_layer 	repo_int[0] 	340829
scalar abilene_cost_network.node[0].content_store 	p_hit[0] 	-nan
scalar abilene_cost_network.node[0].content_store 	hits[0] 	0
scalar abilene_cost_network.node[0].content_store 	misses[0] 	0
scalar abilene_cost_network.node[0].content_store 	decision_yes[0] 	0
scalar abilene_cost_network.node[0].content_store 	decision_no[0] 	0
scalar abilene_cost_network.node[0].content_store 	decision_ratio[0] 	0
scalar abilene_cost_network.node[1].core_layer 	interests[1] 	43666
scalar abilene_cost_network.node[1].core_layer 	data[1] 	38036
scalar abilene_cost_network.node[1].content_store 	p_hit[1] 	0.12891036504374
scalar abilene_cost_network.node[1].content_store 	hits[1] 	5629
scalar abilene_cost_network.node[1].content_store 	misses[1] 	38037
scalar abilene_cost_network.node[1].content_store 	decision_yes[1] 	38036
scalar abilene_cost_network.node[1].content_store 	decision_no[1] 	0
scalar abilene_cost_network.node[1].content_store 	decision_ratio[1] 	1
scalar abilene_cost_network.node[2].core_layer 	interests[2] 	180760
scalar abilene_cost_network.node[2].core_layer 	data[2] 	129620
scalar abilene_cost_network.node[2].content_store 	p_hit[2] 	0.28218079221067
scalar abilene_cost_network.node[2].content_store 	hits[2] 	51007
scalar abilene_cost_network.node[2].content_store 	misses[2] 	129753
scalar abilene_cost_network.node[2].content_store 	decision_yes[2] 	129620
scalar abilene_cost_network.node[2].content_store 	decision_no[2] 	0
scalar abilene_cost_network.node[2].content_store 	decision_ratio[2] 	1
scalar abilene_cost_network.node[3].core_layer 	interests[3] 	85954
scalar abilene_cost_network.node[3].core_layer 	data[3] 	82529
scalar abilene_cost_network.node[3].content_store 	p_hit[3] 	0.039846894850734
scalar abilene_cost_network.node[3].content_store 	hits[3] 	3425
scalar abilene_cost_network.node[3].content_store 	misses[3] 	82529
scalar abilene_cost_network.node[3].content_store 	decision_yes[3] 	82529
scalar abilene_cost_network.node[3].content_store 	decision_no[3] 	0
scalar abilene_cost_network.node[3].content_store 	decision_ratio[3] 	1
scalar abilene_cost_network.node[4].core_layer 	interests[4] 	41581
scalar abilene_cost_network.node[4].core_layer 	data[4] 	38204
scalar abilene_cost_network.node[4].content_store 	p_hit[4] 	0.081214977994757
scalar abilene_cost_network.node[4].content_store 	hits[4] 	3377
scalar abilene_cost_network.node[4].content_store 	misses[4] 	38204
scalar abilene_cost_network.node[4].content_store 	decision_yes[4] 	38204
scalar abilene_cost_network.node[4].content_store 	decision_no[4] 	0
scalar abilene_cost_network.node[4].content_store 	decision_ratio[4] 	1
scalar abilene_cost_network.node[5].core_layer 	interests[5] 	113279
scalar abilene_cost_network.node[5].core_layer 	repo_load[5] 	109235
scalar abilene_cost_network.node[5].core_layer 	data[5] 	0
scalar abilene_cost_network.node[5].content_store 	p_hit[5] 	0.035699467685979
scalar abilene_cost_network.node[5].content_store 	hits[5] 	4044
scalar abilene_cost_network.node[5].content_store 	misses[5] 	109235
scalar abilene_cost_network.node[5].content_store 	decision_yes[5] 	109235
scalar abilene_cost_network.node[5].content_store 	decision_no[5] 	0
scalar abilene_cost_network.node[5].content_store 	decision_ratio[5] 	1
scalar abilene_cost_network.node[6].core_layer 	interests[6] 	85324
scalar abilene_cost_network.node[6].core_layer 	data[6] 	75075
scalar abilene_cost_network.node[6].content_store 	p_hit[6] 	0.12011860672261
scalar abilene_cost_network.node[6].content_store 	hits[6] 	10249
scalar abilene_cost_network.node[6].content_store 	misses[6] 	75075
scalar abilene_cost_network.node[6].content_store 	decision_yes[6] 	75075
scalar abilene_cost_network.node[6].content_store 	decision_no[6] 	0
scalar abilene_cost_network.node[6].content_store 	decision_ratio[6] 	1
scalar abilene_cost_network.node[7].core_layer 	interests[7] 	308505
scalar abilene_cost_network.node[7].core_layer 	repo_load[7] 	121299
scalar abilene_cost_network.node[7].core_layer 	data[7] 	133518
scalar abilene_cost_network.node[7].content_store 	p_hit[7] 	0.17322895901201
scalar abilene_cost_network.node[7].content_store 	hits[7] 	53442
scalar abilene_cost_network.node[7].content_store 	misses[7] 	255063
scalar abilene_cost_network.node[7].content_store 	decision_yes[7] 	254817
scalar abilene_cost_network.node[7].content_store 	decision_no[7] 	0
scalar abilene_cost_network.node[7].content_store 	decision_ratio[7] 	1
scalar abilene_cost_network.node[8].core_layer 	interests[8] 	227789
scalar abilene_cost_network.node[8].core_layer 	data[8] 	171648
scalar abilene_cost_network.node[8].content_store 	p_hit[8] 	0.24512597184236
scalar abilene_cost_network.node[8].content_store 	hits[8] 	55837
scalar abilene_cost_network.node[8].content_store 	misses[8] 	171952
scalar abilene_cost_network.node[8].content_store 	decision_yes[8] 	171648
scalar abilene_cost_network.node[8].content_store 	decision_no[8] 	0
scalar abilene_cost_network.node[8].content_store 	decision_ratio[8] 	1
scalar abilene_cost_network.node[9].core_layer 	interests[9] 	83583
scalar abilene_cost_network.node[9].core_layer 	data[9] 	76602
scalar abilene_cost_network.node[9].content_store 	p_hit[9] 	0.083521768780733
scalar abilene_cost_network.node[9].content_store 	hits[9] 	6981
scalar abilene_cost_network.node[9].content_store 	misses[9] 	76602
scalar abilene_cost_network.node[9].content_store 	decision_yes[9] 	76602
scalar abilene_cost_network.node[9].content_store 	decision_no[9] 	0
scalar abilene_cost_network.node[9].content_store 	decision_ratio[9] 	1
scalar abilene_cost_network.node[10].core_layer 	interests[10] 	114639
scalar abilene_cost_network.node[10].core_layer 	repo_load[10] 	110295
scalar abilene_cost_network.node[10].core_layer 	data[10] 	0
scalar abilene_cost_network.node[10].content_store 	p_hit[10] 	0.037892863685133
scalar abilene_cost_network.node[10].content_store 	hits[10] 	4344
scalar abilene_cost_network.node[10].content_store 	misses[10] 	110295
scalar abilene_cost_network.node[10].content_store 	decision_yes[10] 	110295
scalar abilene_cost_network.node[10].content_store 	decision_no[10] 	0
scalar abilene_cost_network.node[10].content_store 	decision_ratio[10] 	1
scalar abilene_cost_network.client[2] 	hdistance[2] 	2.2084793524778
scalar abilene_cost_network.client[2] 	downloads[2] 	180627
scalar abilene_cost_network.client[2] 	avg_time[2] 	0.008934342361
scalar abilene_cost_network.client[2] 	interests_sent[2] 	180760
scalar abilene_cost_network.client[7] 	hdistance[7] 	1.8135840890584
scalar abilene_cost_network.client[7] 	downloads[7] 	179298
scalar abilene_cost_network.client[7] 	avg_time[7] 	0.008043779594
scalar abilene_cost_network.client[7] 	interests_sent[7] 	179494
scalar abilene_cost_network.client[8] 	hdistance[8] 	2.0197351554401
scalar abilene_cost_network.client[8] 	downloads[8] 	179426
scalar abilene_cost_network.client[8] 	avg_time[8] 	0.009672674767
scalar abilene_cost_network.client[8] 	interests_sent[8] 	179596
