version 2
run General-10-20140904-11:02:24-27339
attr D lce
attr F spr
attr R lru
attr a 1
attr configname General
attr csize 1e3
attr ctlg 1e5
attr datetime 20140904-11:02:24
attr experiment General
attr inifile omnetpp.ini
attr iterationvars "$net=abilene_cost, $rep=15, $priceratiovalue=10, $weights=0.333_0.333_0.334, $lambda=100, $a=1, $ctlg=1e5, $F=spr, $ttl=10, $D=lce, $xi=1, $R=lru, $csize=1e3, $pricebits=0, $window=60, $variance=0.05, $mytime=1800"
attr iterationvars2 "$net=abilene_cost, $rep=15, $priceratiovalue=10, $weights=0.333_0.333_0.334, $lambda=100, $a=1, $ctlg=1e5, $F=spr, $ttl=10, $D=lce, $xi=1, $R=lru, $csize=1e3, $pricebits=0, $window=60, $variance=0.05, $mytime=1800, $repetition=0"
attr lambda 100
attr measurement "$net=abilene_cost, $rep=15, $priceratiovalue=10, $weights=0.333_0.333_0.334, $lambda=100, $a=1, $ctlg=1e5, $F=spr, $ttl=10, $D=lce, $xi=1, $R=lru, $csize=1e3, $pricebits=0, $window=60, $variance=0.05, $mytime=1800"
attr mytime 1800
attr net abilene_cost
attr network networks.${net=abilene_cost}_network
attr pricebits 0
attr priceratiovalue 10
attr processid 27339
attr rep 15
attr repetition 0
attr replication #0
attr resultdir results
attr runnumber 10
attr seedset 15
attr ttl 10
attr variance 0.05
attr weights 0.333_0.333_0.334
attr window 60
attr xi 1

scalar . 	a 	1
scalar . 	csize 	1e3
scalar . 	ctlg 	1e5
scalar . 	lambda 	100
scalar . 	mytime 	1800
scalar . 	pricebits 	0
scalar . 	priceratiovalue 	10
scalar . 	rep 	15
scalar . 	ttl 	10
scalar . 	variance 	0.05
scalar . 	window 	60
scalar . 	xi 	1
scalar abilene_cost_network.content_distribution 	repo-0 	5
scalar abilene_cost_network.content_distribution 	repo-1 	8
scalar abilene_cost_network.content_distribution 	repo-2 	4
scalar abilene_cost_network.content_distribution 	client-0 	3
scalar abilene_cost_network.content_distribution 	client-1 	2
scalar abilene_cost_network.content_distribution 	client-2 	0
scalar abilene_cost_network.content_distribution 	repo-0_card 	33352
scalar abilene_cost_network.content_distribution 	repo-0_price 	1
scalar abilene_cost_network.content_distribution 	repo-1_card 	33288
scalar abilene_cost_network.content_distribution 	repo-1_price 	0
scalar abilene_cost_network.content_distribution 	repo-2_card 	33360
scalar abilene_cost_network.content_distribution 	repo-2_price 	10
scalar abilene_cost_network.statistics 	repo_popularity[0] 	0.43052598680441
scalar abilene_cost_network.statistics 	repo_popularity[1] 	0.30869775185449
scalar abilene_cost_network.statistics 	repo_popularity[2] 	0.26077626134111
scalar abilene_cost_network.statistics 	stabilization_time 	36060
scalar abilene_cost_network.statistics 	p_hit 	0.12306153240404
scalar abilene_cost_network.statistics 	interests 	138763.54545455
scalar abilene_cost_network.statistics 	data 	89722.363636364
scalar abilene_cost_network.statistics 	hdistance 	2.4850574155242
scalar abilene_cost_network.statistics 	avg_time 	0.010335853365
scalar abilene_cost_network.statistics 	downloads 	538823
scalar abilene_cost_network.statistics 	total_cost 	1301291
scalar abilene_cost_network.statistics 	total_replicas 	100000
scalar abilene_cost_network.statistics 	inner_hit 	0.34927239557331
scalar abilene_cost_network.statistics 	interests_sent 	539446
scalar abilene_cost_network.node[0].core_layer 	interests[0] 	179460
scalar abilene_cost_network.node[0].core_layer 	data[0] 	129025
scalar abilene_cost_network.node[0].core_layer 	repo_int[0] 	350627
scalar abilene_cost_network.node[0].content_store 	p_hit[0] 	0.2795274713028
scalar abilene_cost_network.node[0].content_store 	hits[0] 	50164
scalar abilene_cost_network.node[0].content_store 	misses[0] 	129296
scalar abilene_cost_network.node[0].content_store 	decision_yes[0] 	129025
scalar abilene_cost_network.node[0].content_store 	decision_no[0] 	0
scalar abilene_cost_network.node[0].content_store 	decision_ratio[0] 	1
scalar abilene_cost_network.node[1].core_layer 	interests[1] 	129030
scalar abilene_cost_network.node[1].core_layer 	data[1] 	128273
scalar abilene_cost_network.node[1].content_store 	p_hit[1] 	0.0058358521274122
scalar abilene_cost_network.node[1].content_store 	hits[1] 	753
scalar abilene_cost_network.node[1].content_store 	misses[1] 	128277
scalar abilene_cost_network.node[1].content_store 	decision_yes[1] 	128273
scalar abilene_cost_network.node[1].content_store 	decision_no[1] 	0
scalar abilene_cost_network.node[1].content_store 	decision_ratio[1] 	1
scalar abilene_cost_network.node[2].core_layer 	interests[2] 	354523
scalar abilene_cost_network.node[2].core_layer 	data[2] 	297741
scalar abilene_cost_network.node[2].content_store 	p_hit[2] 	0.15902494337462
scalar abilene_cost_network.node[2].content_store 	hits[2] 	56378
scalar abilene_cost_network.node[2].content_store 	misses[2] 	298145
scalar abilene_cost_network.node[2].content_store 	decision_yes[2] 	297741
scalar abilene_cost_network.node[2].content_store 	decision_no[2] 	0
scalar abilene_cost_network.node[2].content_store 	decision_ratio[2] 	1
scalar abilene_cost_network.node[3].core_layer 	interests[3] 	354371
scalar abilene_cost_network.node[3].core_layer 	data[3] 	300128
scalar abilene_cost_network.node[3].content_store 	p_hit[3] 	0.1522020707112
scalar abilene_cost_network.node[3].content_store 	hits[3] 	53936
scalar abilene_cost_network.node[3].content_store 	misses[3] 	300435
scalar abilene_cost_network.node[3].content_store 	decision_yes[3] 	300128
scalar abilene_cost_network.node[3].content_store 	decision_no[3] 	0
scalar abilene_cost_network.node[3].content_store 	decision_ratio[3] 	1
scalar abilene_cost_network.node[4].core_layer 	interests[4] 	253953
scalar abilene_cost_network.node[4].core_layer 	repo_load[4] 	118048
scalar abilene_cost_network.node[4].core_layer 	data[4] 	131779
scalar abilene_cost_network.node[4].content_store 	p_hit[4] 	0.016251038578005
scalar abilene_cost_network.node[4].content_store 	hits[4] 	4127
scalar abilene_cost_network.node[4].content_store 	misses[4] 	249826
scalar abilene_cost_network.node[4].content_store 	decision_yes[4] 	249827
scalar abilene_cost_network.node[4].content_store 	decision_no[4] 	0
scalar abilene_cost_network.node[4].content_store 	decision_ratio[4] 	1
scalar abilene_cost_network.node[5].core_layer 	interests[5] 	131779
scalar abilene_cost_network.node[5].core_layer 	repo_load[5] 	120811
scalar abilene_cost_network.node[5].core_layer 	data[5] 	0
scalar abilene_cost_network.node[5].content_store 	p_hit[5] 	0.083230256717686
scalar abilene_cost_network.node[5].content_store 	hits[5] 	10968
scalar abilene_cost_network.node[5].content_store 	misses[5] 	120811
scalar abilene_cost_network.node[5].content_store 	decision_yes[5] 	120811
scalar abilene_cost_network.node[5].content_store 	decision_no[5] 	0
scalar abilene_cost_network.node[5].content_store 	decision_ratio[5] 	1
scalar abilene_cost_network.node[6].core_layer 	interests[6] 	0
scalar abilene_cost_network.node[6].core_layer 	data[6] 	0
scalar abilene_cost_network.node[6].content_store 	p_hit[6] 	-nan
scalar abilene_cost_network.node[6].content_store 	hits[6] 	0
scalar abilene_cost_network.node[6].content_store 	misses[6] 	0
scalar abilene_cost_network.node[6].content_store 	decision_yes[6] 	0
scalar abilene_cost_network.node[6].content_store 	decision_no[6] 	0
scalar abilene_cost_network.node[6].content_store 	decision_ratio[6] 	0
scalar abilene_cost_network.node[7].core_layer 	interests[7] 	0
scalar abilene_cost_network.node[7].core_layer 	data[7] 	0
scalar abilene_cost_network.node[7].content_store 	p_hit[7] 	-nan
scalar abilene_cost_network.node[7].content_store 	hits[7] 	0
scalar abilene_cost_network.node[7].content_store 	misses[7] 	0
scalar abilene_cost_network.node[7].content_store 	decision_yes[7] 	0
scalar abilene_cost_network.node[7].content_store 	decision_no[7] 	0
scalar abilene_cost_network.node[7].content_store 	decision_ratio[7] 	0
scalar abilene_cost_network.node[8].core_layer 	interests[8] 	123283
scalar abilene_cost_network.node[8].core_layer 	repo_load[8] 	111768
scalar abilene_cost_network.node[8].core_layer 	data[8] 	0
scalar abilene_cost_network.node[8].content_store 	p_hit[8] 	0.093402983379704
scalar abilene_cost_network.node[8].content_store 	hits[8] 	11515
scalar abilene_cost_network.node[8].content_store 	misses[8] 	111768
scalar abilene_cost_network.node[8].content_store 	decision_yes[8] 	111768
scalar abilene_cost_network.node[8].content_store 	decision_no[8] 	0
scalar abilene_cost_network.node[8].content_store 	decision_ratio[8] 	1
scalar abilene_cost_network.node[9].core_layer 	interests[9] 	0
scalar abilene_cost_network.node[9].core_layer 	data[9] 	0
scalar abilene_cost_network.node[9].content_store 	p_hit[9] 	-nan
scalar abilene_cost_network.node[9].content_store 	hits[9] 	0
scalar abilene_cost_network.node[9].content_store 	misses[9] 	0
scalar abilene_cost_network.node[9].content_store 	decision_yes[9] 	0
scalar abilene_cost_network.node[9].content_store 	decision_no[9] 	0
scalar abilene_cost_network.node[9].content_store 	decision_ratio[9] 	0
scalar abilene_cost_network.node[10].core_layer 	interests[10] 	0
scalar abilene_cost_network.node[10].core_layer 	data[10] 	0
scalar abilene_cost_network.node[10].content_store 	p_hit[10] 	-nan
scalar abilene_cost_network.node[10].content_store 	hits[10] 	0
scalar abilene_cost_network.node[10].content_store 	misses[10] 	0
scalar abilene_cost_network.node[10].content_store 	decision_yes[10] 	0
scalar abilene_cost_network.node[10].content_store 	decision_no[10] 	0
scalar abilene_cost_network.node[10].content_store 	decision_ratio[10] 	0
scalar abilene_cost_network.client[0] 	hdistance[0] 	3.4254892878469
scalar abilene_cost_network.client[0] 	downloads[0] 	179189
scalar abilene_cost_network.client[0] 	avg_time[0] 	0.018461470751
scalar abilene_cost_network.client[0] 	interests_sent[0] 	179460
scalar abilene_cost_network.client[2] 	hdistance[2] 	2.1326944137153
scalar abilene_cost_network.client[2] 	downloads[2] 	179887
scalar abilene_cost_network.client[2] 	avg_time[2] 	0.006865262812
scalar abilene_cost_network.client[2] 	interests_sent[2] 	180073
scalar abilene_cost_network.client[3] 	hdistance[3] 	1.8969885450105
scalar abilene_cost_network.client[3] 	downloads[3] 	179747
scalar abilene_cost_network.client[3] 	avg_time[3] 	0.005680826532
scalar abilene_cost_network.client[3] 	interests_sent[3] 	179913
