version 2
run General-2-20140904-16:31:51-25312
attr D lce
attr F spr
attr R lru
attr a 1
attr configname General
attr csize 1e3
attr ctlg 1e5
attr datetime 20140904-16:31:51
attr experiment General
attr inifile omnetpp.ini
attr iterationvars "$net=abilene_cost, $rep=18, $priceratiovalue=10, $weights=0.333_0.333_0.334, $lambda=100, $a=1, $ctlg=1e5, $F=spr, $ttl=10, $D=lce, $xi=1, $R=lru, $csize=1e3, $pricebits=0, $window=60, $variance=0.05, $mytime=1800"
attr iterationvars2 "$net=abilene_cost, $rep=18, $priceratiovalue=10, $weights=0.333_0.333_0.334, $lambda=100, $a=1, $ctlg=1e5, $F=spr, $ttl=10, $D=lce, $xi=1, $R=lru, $csize=1e3, $pricebits=0, $window=60, $variance=0.05, $mytime=1800, $repetition=0"
attr lambda 100
attr measurement "$net=abilene_cost, $rep=18, $priceratiovalue=10, $weights=0.333_0.333_0.334, $lambda=100, $a=1, $ctlg=1e5, $F=spr, $ttl=10, $D=lce, $xi=1, $R=lru, $csize=1e3, $pricebits=0, $window=60, $variance=0.05, $mytime=1800"
attr mytime 1800
attr net abilene_cost
attr network networks.${net=abilene_cost}_network
attr pricebits 0
attr priceratiovalue 10
attr processid 25312
attr rep 18
attr repetition 0
attr replication #0
attr resultdir results
attr runnumber 2
attr seedset 18
attr ttl 10
attr variance 0.05
attr weights 0.333_0.333_0.334
attr window 60
attr xi 1

scalar . 	a 	1
scalar . 	csize 	1e3
scalar . 	ctlg 	1e5
scalar . 	lambda 	100
scalar . 	mytime 	1800
scalar . 	pricebits 	0
scalar . 	priceratiovalue 	10
scalar . 	rep 	18
scalar . 	ttl 	10
scalar . 	variance 	0.05
scalar . 	window 	60
scalar . 	xi 	1
scalar abilene_cost_network.content_distribution 	repo-0 	10
scalar abilene_cost_network.content_distribution 	repo-1 	7
scalar abilene_cost_network.content_distribution 	repo-2 	8
scalar abilene_cost_network.content_distribution 	client-0 	5
scalar abilene_cost_network.content_distribution 	client-1 	7
scalar abilene_cost_network.content_distribution 	client-2 	1
scalar abilene_cost_network.content_distribution 	repo-0_card 	33459
scalar abilene_cost_network.content_distribution 	repo-0_price 	10
scalar abilene_cost_network.content_distribution 	repo-1_card 	33217
scalar abilene_cost_network.content_distribution 	repo-1_price 	1
scalar abilene_cost_network.content_distribution 	repo-2_card 	33324
scalar abilene_cost_network.content_distribution 	repo-2_price 	0
scalar abilene_cost_network.statistics 	repo_popularity[0] 	0.37601233625496
scalar abilene_cost_network.statistics 	repo_popularity[1] 	0.2643417951054
scalar abilene_cost_network.statistics 	repo_popularity[2] 	0.35964586863965
scalar abilene_cost_network.statistics 	stabilization_time 	36060
scalar abilene_cost_network.statistics 	p_hit 	0.13819768766168
scalar abilene_cost_network.statistics 	interests 	125319.81818182
scalar abilene_cost_network.statistics 	data 	76157.181818182
scalar abilene_cost_network.statistics 	hdistance 	2.1991064361131
scalar abilene_cost_network.statistics 	avg_time 	0.00985584154
scalar abilene_cost_network.statistics 	downloads 	540125
scalar abilene_cost_network.statistics 	total_cost 	1236855
scalar abilene_cost_network.statistics 	total_replicas 	100000
scalar abilene_cost_network.statistics 	inner_hit 	0.35281647766721
scalar abilene_cost_network.statistics 	interests_sent 	540785
scalar abilene_cost_network.node[0].core_layer 	interests[0] 	0
scalar abilene_cost_network.node[0].core_layer 	data[0] 	0
scalar abilene_cost_network.node[0].core_layer 	repo_int[0] 	349560
scalar abilene_cost_network.node[0].content_store 	p_hit[0] 	-nan
scalar abilene_cost_network.node[0].content_store 	hits[0] 	0
scalar abilene_cost_network.node[0].content_store 	misses[0] 	0
scalar abilene_cost_network.node[0].content_store 	decision_yes[0] 	0
scalar abilene_cost_network.node[0].content_store 	decision_no[0] 	0
scalar abilene_cost_network.node[0].content_store 	decision_ratio[0] 	0
scalar abilene_cost_network.node[1].core_layer 	interests[1] 	217884
scalar abilene_cost_network.node[1].core_layer 	data[1] 	168078
scalar abilene_cost_network.node[1].content_store 	p_hit[1] 	0.22751555873768
scalar abilene_cost_network.node[1].content_store 	hits[1] 	49572
scalar abilene_cost_network.node[1].content_store 	misses[1] 	168312
scalar abilene_cost_network.node[1].content_store 	decision_yes[1] 	168078
scalar abilene_cost_network.node[1].content_store 	decision_no[1] 	0
scalar abilene_cost_network.node[1].content_store 	decision_ratio[1] 	1
scalar abilene_cost_network.node[2].core_layer 	interests[2] 	125575
scalar abilene_cost_network.node[2].core_layer 	data[2] 	123556
scalar abilene_cost_network.node[2].content_store 	p_hit[2] 	0.016062114274338
scalar abilene_cost_network.node[2].content_store 	hits[2] 	2017
scalar abilene_cost_network.node[2].content_store 	misses[2] 	123558
scalar abilene_cost_network.node[2].content_store 	decision_yes[2] 	123556
scalar abilene_cost_network.node[2].content_store 	decision_no[2] 	0
scalar abilene_cost_network.node[2].content_store 	decision_ratio[2] 	1
scalar abilene_cost_network.node[3].core_layer 	interests[3] 	80812
scalar abilene_cost_network.node[3].core_layer 	data[3] 	79146
scalar abilene_cost_network.node[3].content_store 	p_hit[3] 	0.020591001336435
scalar abilene_cost_network.node[3].content_store 	hits[3] 	1664
scalar abilene_cost_network.node[3].content_store 	misses[3] 	79148
scalar abilene_cost_network.node[3].content_store 	decision_yes[3] 	79146
scalar abilene_cost_network.node[3].content_store 	decision_no[3] 	0
scalar abilene_cost_network.node[3].content_store 	decision_ratio[3] 	1
scalar abilene_cost_network.node[4].core_layer 	interests[4] 	43779
scalar abilene_cost_network.node[4].core_layer 	data[4] 	38108
scalar abilene_cost_network.node[4].content_store 	p_hit[4] 	0.12951415062016
scalar abilene_cost_network.node[4].content_store 	hits[4] 	5670
scalar abilene_cost_network.node[4].content_store 	misses[4] 	38109
scalar abilene_cost_network.node[4].content_store 	decision_yes[4] 	38108
scalar abilene_cost_network.node[4].content_store 	decision_no[4] 	0
scalar abilene_cost_network.node[4].content_store 	decision_ratio[4] 	1
scalar abilene_cost_network.node[5].core_layer 	interests[5] 	180024
scalar abilene_cost_network.node[5].core_layer 	data[5] 	129490
scalar abilene_cost_network.node[5].content_store 	p_hit[5] 	0.27993489756921
scalar abilene_cost_network.node[5].content_store 	hits[5] 	50395
scalar abilene_cost_network.node[5].content_store 	misses[5] 	129629
scalar abilene_cost_network.node[5].content_store 	decision_yes[5] 	129490
scalar abilene_cost_network.node[5].content_store 	decision_no[5] 	0
scalar abilene_cost_network.node[5].content_store 	decision_ratio[5] 	1
scalar abilene_cost_network.node[6].core_layer 	interests[6] 	85712
scalar abilene_cost_network.node[6].core_layer 	data[6] 	82395
scalar abilene_cost_network.node[6].content_store 	p_hit[6] 	0.038699365316408
scalar abilene_cost_network.node[6].content_store 	hits[6] 	3317
scalar abilene_cost_network.node[6].content_store 	misses[6] 	82395
scalar abilene_cost_network.node[6].content_store 	decision_yes[6] 	82395
scalar abilene_cost_network.node[6].content_store 	decision_no[6] 	0
scalar abilene_cost_network.node[6].content_store 	decision_ratio[6] 	1
scalar abilene_cost_network.node[7].core_layer 	interests[7] 	304418
scalar abilene_cost_network.node[7].core_layer 	repo_load[7] 	120775
scalar abilene_cost_network.node[7].core_layer 	data[7] 	132345
scalar abilene_cost_network.node[7].content_store 	p_hit[7] 	0.16738497723525
scalar abilene_cost_network.node[7].content_store 	hits[7] 	50955
scalar abilene_cost_network.node[7].content_store 	misses[7] 	253463
scalar abilene_cost_network.node[7].content_store 	decision_yes[7] 	253120
scalar abilene_cost_network.node[7].content_store 	decision_no[7] 	0
scalar abilene_cost_network.node[7].content_store 	decision_ratio[7] 	1
scalar abilene_cost_network.node[8].core_layer 	interests[8] 	175091
scalar abilene_cost_network.node[8].core_layer 	repo_load[8] 	117177
scalar abilene_cost_network.node[8].core_layer 	data[8] 	46784
scalar abilene_cost_network.node[8].content_store 	p_hit[8] 	0.063566945188502
scalar abilene_cost_network.node[8].content_store 	hits[8] 	11130
scalar abilene_cost_network.node[8].content_store 	misses[8] 	163961
scalar abilene_cost_network.node[8].content_store 	decision_yes[8] 	163961
scalar abilene_cost_network.node[8].content_store 	decision_no[8] 	0
scalar abilene_cost_network.node[8].content_store 	decision_ratio[8] 	1
scalar abilene_cost_network.node[9].core_layer 	interests[9] 	46784
scalar abilene_cost_network.node[9].core_layer 	data[9] 	37827
scalar abilene_cost_network.node[9].content_store 	p_hit[9] 	0.19145434336525
scalar abilene_cost_network.node[9].content_store 	hits[9] 	8957
scalar abilene_cost_network.node[9].content_store 	misses[9] 	37827
scalar abilene_cost_network.node[9].content_store 	decision_yes[9] 	37827
scalar abilene_cost_network.node[9].content_store 	decision_no[9] 	0
scalar abilene_cost_network.node[9].content_store 	decision_ratio[9] 	1
scalar abilene_cost_network.node[10].core_layer 	interests[10] 	118439
scalar abilene_cost_network.node[10].core_layer 	repo_load[10] 	111608
scalar abilene_cost_network.node[10].core_layer 	data[10] 	0
scalar abilene_cost_network.node[10].content_store 	p_hit[10] 	0.057675258994081
scalar abilene_cost_network.node[10].content_store 	hits[10] 	6831
scalar abilene_cost_network.node[10].content_store 	misses[10] 	111608
scalar abilene_cost_network.node[10].content_store 	decision_yes[10] 	111608
scalar abilene_cost_network.node[10].content_store 	decision_no[10] 	0
scalar abilene_cost_network.node[10].content_store 	decision_ratio[10] 	1
scalar abilene_cost_network.client[1] 	hdistance[1] 	2.0989848139754
scalar abilene_cost_network.client[1] 	downloads[1] 	179573
scalar abilene_cost_network.client[1] 	avg_time[1] 	0.009243049097
scalar abilene_cost_network.client[1] 	interests_sent[1] 	179775
scalar abilene_cost_network.client[5] 	hdistance[5] 	2.8575423187037
scalar abilene_cost_network.client[5] 	downloads[5] 	179885
scalar abilene_cost_network.client[5] 	avg_time[5] 	0.011928359135
scalar abilene_cost_network.client[5] 	interests_sent[5] 	180024
scalar abilene_cost_network.client[7] 	hdistance[7] 	1.6407921756602
scalar abilene_cost_network.client[7] 	downloads[7] 	180667
scalar abilene_cost_network.client[7] 	avg_time[7] 	0.008396116389
scalar abilene_cost_network.client[7] 	interests_sent[7] 	180986
