version 2
run General-14-20140904-11:09:03-27347
attr D lce
attr F spr
attr R lru
attr a 1
attr configname General
attr csize 1e3
attr ctlg 1e5
attr datetime 20140904-11:09:03
attr experiment General
attr inifile omnetpp.ini
attr iterationvars "$net=abilene_cost, $rep=16, $priceratiovalue=10, $weights=0.333_0.333_0.334, $lambda=100, $a=1, $ctlg=1e5, $F=spr, $ttl=10, $D=lce, $xi=1, $R=lru, $csize=1e3, $pricebits=0, $window=60, $variance=0.05, $mytime=1800"
attr iterationvars2 "$net=abilene_cost, $rep=16, $priceratiovalue=10, $weights=0.333_0.333_0.334, $lambda=100, $a=1, $ctlg=1e5, $F=spr, $ttl=10, $D=lce, $xi=1, $R=lru, $csize=1e3, $pricebits=0, $window=60, $variance=0.05, $mytime=1800, $repetition=0"
attr lambda 100
attr measurement "$net=abilene_cost, $rep=16, $priceratiovalue=10, $weights=0.333_0.333_0.334, $lambda=100, $a=1, $ctlg=1e5, $F=spr, $ttl=10, $D=lce, $xi=1, $R=lru, $csize=1e3, $pricebits=0, $window=60, $variance=0.05, $mytime=1800"
attr mytime 1800
attr net abilene_cost
attr network networks.${net=abilene_cost}_network
attr pricebits 0
attr priceratiovalue 10
attr processid 27347
attr rep 16
attr repetition 0
attr replication #0
attr resultdir results
attr runnumber 14
attr seedset 16
attr ttl 10
attr variance 0.05
attr weights 0.333_0.333_0.334
attr window 60
attr xi 1

scalar . 	a 	1
scalar . 	csize 	1e3
scalar . 	ctlg 	1e5
scalar . 	lambda 	100
scalar . 	mytime 	1800
scalar . 	pricebits 	0
scalar . 	priceratiovalue 	10
scalar . 	rep 	16
scalar . 	ttl 	10
scalar . 	variance 	0.05
scalar . 	window 	60
scalar . 	xi 	1
scalar abilene_cost_network.content_distribution 	repo-0 	10
scalar abilene_cost_network.content_distribution 	repo-1 	8
scalar abilene_cost_network.content_distribution 	repo-2 	5
scalar abilene_cost_network.content_distribution 	client-0 	2
scalar abilene_cost_network.content_distribution 	client-1 	5
scalar abilene_cost_network.content_distribution 	client-2 	1
scalar abilene_cost_network.content_distribution 	repo-0_card 	33300
scalar abilene_cost_network.content_distribution 	repo-0_price 	10
scalar abilene_cost_network.content_distribution 	repo-1_card 	33210
scalar abilene_cost_network.content_distribution 	repo-1_price 	0
scalar abilene_cost_network.content_distribution 	repo-2_card 	33490
scalar abilene_cost_network.content_distribution 	repo-2_price 	1
scalar abilene_cost_network.statistics 	repo_popularity[0] 	0.32240545810189
scalar abilene_cost_network.statistics 	repo_popularity[1] 	0.25747982251511
scalar abilene_cost_network.statistics 	repo_popularity[2] 	0.42011471938301
scalar abilene_cost_network.statistics 	stabilization_time 	36060
scalar abilene_cost_network.statistics 	p_hit 	0.13503171015568
scalar abilene_cost_network.statistics 	interests 	129353.45454545
scalar abilene_cost_network.statistics 	data 	80315.545454545
scalar abilene_cost_network.statistics 	hdistance 	2.2840794537818
scalar abilene_cost_network.statistics 	avg_time 	0.009769121926
scalar abilene_cost_network.statistics 	downloads 	538857
scalar abilene_cost_network.statistics 	total_cost 	1250039
scalar abilene_cost_network.statistics 	total_replicas 	100000
scalar abilene_cost_network.statistics 	inner_hit 	0.35708546052107
scalar abilene_cost_network.statistics 	interests_sent 	539416
scalar abilene_cost_network.node[0].core_layer 	interests[0] 	0
scalar abilene_cost_network.node[0].core_layer 	data[0] 	0
scalar abilene_cost_network.node[0].core_layer 	repo_int[0] 	346439
scalar abilene_cost_network.node[0].content_store 	p_hit[0] 	-nan
scalar abilene_cost_network.node[0].content_store 	hits[0] 	0
scalar abilene_cost_network.node[0].content_store 	misses[0] 	0
scalar abilene_cost_network.node[0].content_store 	decision_yes[0] 	0
scalar abilene_cost_network.node[0].content_store 	decision_no[0] 	0
scalar abilene_cost_network.node[0].content_store 	decision_ratio[0] 	0
scalar abilene_cost_network.node[1].core_layer 	interests[1] 	263433
scalar abilene_cost_network.node[1].core_layer 	data[1] 	211413
scalar abilene_cost_network.node[1].content_store 	p_hit[1] 	0.19644463677671
scalar abilene_cost_network.node[1].content_store 	hits[1] 	51750
scalar abilene_cost_network.node[1].content_store 	misses[1] 	211683
scalar abilene_cost_network.node[1].content_store 	decision_yes[1] 	211413
scalar abilene_cost_network.node[1].content_store 	decision_no[1] 	0
scalar abilene_cost_network.node[1].content_store 	decision_ratio[1] 	1
scalar abilene_cost_network.node[2].core_layer 	interests[2] 	314762
scalar abilene_cost_network.node[2].core_layer 	data[2] 	258743
scalar abilene_cost_network.node[2].content_store 	p_hit[2] 	0.17660327485529
scalar abilene_cost_network.node[2].content_store 	hits[2] 	55588
scalar abilene_cost_network.node[2].content_store 	misses[2] 	259174
scalar abilene_cost_network.node[2].content_store 	decision_yes[2] 	258743
scalar abilene_cost_network.node[2].content_store 	decision_no[2] 	0
scalar abilene_cost_network.node[2].content_store 	decision_ratio[2] 	1
scalar abilene_cost_network.node[3].core_layer 	interests[3] 	134382
scalar abilene_cost_network.node[3].core_layer 	data[3] 	127064
scalar abilene_cost_network.node[3].content_store 	p_hit[3] 	0.054456698069682
scalar abilene_cost_network.node[3].content_store 	hits[3] 	7318
scalar abilene_cost_network.node[3].content_store 	misses[3] 	127064
scalar abilene_cost_network.node[3].content_store 	decision_yes[3] 	127064
scalar abilene_cost_network.node[3].content_store 	decision_no[3] 	0
scalar abilene_cost_network.node[3].content_store 	decision_ratio[3] 	1
scalar abilene_cost_network.node[4].core_layer 	interests[4] 	128566
scalar abilene_cost_network.node[4].core_layer 	data[4] 	126765
scalar abilene_cost_network.node[4].content_store 	p_hit[4] 	0.014008369242257
scalar abilene_cost_network.node[4].content_store 	hits[4] 	1801
scalar abilene_cost_network.node[4].content_store 	misses[4] 	126765
scalar abilene_cost_network.node[4].content_store 	decision_yes[4] 	126765
scalar abilene_cost_network.node[4].content_store 	decision_no[4] 	0
scalar abilene_cost_network.node[4].content_store 	decision_ratio[4] 	1
scalar abilene_cost_network.node[5].core_layer 	interests[5] 	263808
scalar abilene_cost_network.node[5].core_layer 	repo_load[5] 	125129
scalar abilene_cost_network.node[5].core_layer 	data[5] 	87012
scalar abilene_cost_network.node[5].content_store 	p_hit[5] 	0.1953125
scalar abilene_cost_network.node[5].content_store 	hits[5] 	51525
scalar abilene_cost_network.node[5].content_store 	misses[5] 	212283
scalar abilene_cost_network.node[5].content_store 	decision_yes[5] 	212141
scalar abilene_cost_network.node[5].content_store 	decision_no[5] 	0
scalar abilene_cost_network.node[5].content_store 	decision_ratio[5] 	1
scalar abilene_cost_network.node[6].core_layer 	interests[6] 	43047
scalar abilene_cost_network.node[6].core_layer 	data[6] 	36347
scalar abilene_cost_network.node[6].content_store 	p_hit[6] 	0.15564383116129
scalar abilene_cost_network.node[6].content_store 	hits[6] 	6700
scalar abilene_cost_network.node[6].content_store 	misses[6] 	36347
scalar abilene_cost_network.node[6].content_store 	decision_yes[6] 	36347
scalar abilene_cost_network.node[6].content_store 	decision_no[6] 	0
scalar abilene_cost_network.node[6].content_store 	decision_ratio[6] 	1
scalar abilene_cost_network.node[7].core_layer 	interests[7] 	36347
scalar abilene_cost_network.node[7].core_layer 	data[7] 	36127
scalar abilene_cost_network.node[7].content_store 	p_hit[7] 	0.0060527691418824
scalar abilene_cost_network.node[7].content_store 	hits[7] 	220
scalar abilene_cost_network.node[7].content_store 	misses[7] 	36127
scalar abilene_cost_network.node[7].content_store 	decision_yes[7] 	36127
scalar abilene_cost_network.node[7].content_store 	decision_no[7] 	0
scalar abilene_cost_network.node[7].content_store 	decision_ratio[7] 	1
scalar abilene_cost_network.node[8].core_layer 	interests[8] 	119108
scalar abilene_cost_network.node[8].core_layer 	repo_load[8] 	108819
scalar abilene_cost_network.node[8].core_layer 	data[8] 	0
scalar abilene_cost_network.node[8].content_store 	p_hit[8] 	0.086383786143668
scalar abilene_cost_network.node[8].content_store 	hits[8] 	10289
scalar abilene_cost_network.node[8].content_store 	misses[8] 	108819
scalar abilene_cost_network.node[8].content_store 	decision_yes[8] 	108819
scalar abilene_cost_network.node[8].content_store 	decision_no[8] 	0
scalar abilene_cost_network.node[8].content_store 	decision_ratio[8] 	1
scalar abilene_cost_network.node[9].core_layer 	interests[9] 	0
scalar abilene_cost_network.node[9].core_layer 	data[9] 	0
scalar abilene_cost_network.node[9].content_store 	p_hit[9] 	-nan
scalar abilene_cost_network.node[9].content_store 	hits[9] 	0
scalar abilene_cost_network.node[9].content_store 	misses[9] 	0
scalar abilene_cost_network.node[9].content_store 	decision_yes[9] 	0
scalar abilene_cost_network.node[9].content_store 	decision_no[9] 	0
scalar abilene_cost_network.node[9].content_store 	decision_ratio[9] 	0
scalar abilene_cost_network.node[10].core_layer 	interests[10] 	119435
scalar abilene_cost_network.node[10].core_layer 	repo_load[10] 	112491
scalar abilene_cost_network.node[10].core_layer 	data[10] 	0
scalar abilene_cost_network.node[10].content_store 	p_hit[10] 	0.058140411102273
scalar abilene_cost_network.node[10].content_store 	hits[10] 	6944
scalar abilene_cost_network.node[10].content_store 	misses[10] 	112491
scalar abilene_cost_network.node[10].content_store 	decision_yes[10] 	112491
scalar abilene_cost_network.node[10].content_store 	decision_no[10] 	0
scalar abilene_cost_network.node[10].content_store 	decision_ratio[10] 	1
scalar abilene_cost_network.client[1] 	hdistance[1] 	2.3182811524396
scalar abilene_cost_network.client[1] 	downloads[1] 	179376
scalar abilene_cost_network.client[1] 	avg_time[1] 	0.010307611361
scalar abilene_cost_network.client[1] 	interests_sent[1] 	179586
scalar abilene_cost_network.client[2] 	hdistance[2] 	2.0820984604109
scalar abilene_cost_network.client[2] 	downloads[2] 	180113
scalar abilene_cost_network.client[2] 	avg_time[2] 	0.008833591401
scalar abilene_cost_network.client[2] 	interests_sent[2] 	180320
scalar abilene_cost_network.client[5] 	hdistance[5] 	2.4518587484948
scalar abilene_cost_network.client[5] 	downloads[5] 	179368
scalar abilene_cost_network.client[5] 	avg_time[5] 	0.010166163016
scalar abilene_cost_network.client[5] 	interests_sent[5] 	179510
