version 2
run General-2-20140904-15:42:23-28251
attr D lce
attr F spr
attr R lru
attr a 1
attr configname General
attr csize 1e3
attr ctlg 1e5
attr datetime 20140904-15:42:23
attr experiment General
attr inifile omnetpp.ini
attr iterationvars "$net=abilene_cost, $rep=20, $priceratiovalue=10, $weights=0.333_0.333_0.334, $lambda=100, $a=1, $ctlg=1e5, $F=spr, $ttl=10, $D=lce, $xi=1, $R=lru, $csize=1e3, $pricebits=0, $window=60, $variance=0.05, $mytime=1800"
attr iterationvars2 "$net=abilene_cost, $rep=20, $priceratiovalue=10, $weights=0.333_0.333_0.334, $lambda=100, $a=1, $ctlg=1e5, $F=spr, $ttl=10, $D=lce, $xi=1, $R=lru, $csize=1e3, $pricebits=0, $window=60, $variance=0.05, $mytime=1800, $repetition=0"
attr lambda 100
attr measurement "$net=abilene_cost, $rep=20, $priceratiovalue=10, $weights=0.333_0.333_0.334, $lambda=100, $a=1, $ctlg=1e5, $F=spr, $ttl=10, $D=lce, $xi=1, $R=lru, $csize=1e3, $pricebits=0, $window=60, $variance=0.05, $mytime=1800"
attr mytime 1800
attr net abilene_cost
attr network networks.${net=abilene_cost}_network
attr pricebits 0
attr priceratiovalue 10
attr processid 28251
attr rep 20
attr repetition 0
attr replication #0
attr resultdir results
attr runnumber 2
attr seedset 20
attr ttl 10
attr variance 0.05
attr weights 0.333_0.333_0.334
attr window 60
attr xi 1

scalar . 	a 	1
scalar . 	csize 	1e3
scalar . 	ctlg 	1e5
scalar . 	lambda 	100
scalar . 	mytime 	1800
scalar . 	pricebits 	0
scalar . 	priceratiovalue 	10
scalar . 	rep 	20
scalar . 	ttl 	10
scalar . 	variance 	0.05
scalar . 	window 	60
scalar . 	xi 	1
scalar abilene_cost_network.content_distribution 	repo-0 	3
scalar abilene_cost_network.content_distribution 	repo-1 	2
scalar abilene_cost_network.content_distribution 	repo-2 	0
scalar abilene_cost_network.content_distribution 	client-0 	10
scalar abilene_cost_network.content_distribution 	client-1 	1
scalar abilene_cost_network.content_distribution 	client-2 	7
scalar abilene_cost_network.content_distribution 	repo-0_card 	33322
scalar abilene_cost_network.content_distribution 	repo-0_price 	1
scalar abilene_cost_network.content_distribution 	repo-1_card 	33295
scalar abilene_cost_network.content_distribution 	repo-1_price 	0
scalar abilene_cost_network.content_distribution 	repo-2_card 	33383
scalar abilene_cost_network.content_distribution 	repo-2_price 	10
scalar abilene_cost_network.statistics 	repo_popularity[0] 	0.35214481683808
scalar abilene_cost_network.statistics 	repo_popularity[1] 	0.2979978729425
scalar abilene_cost_network.statistics 	repo_popularity[2] 	0.34985731021944
scalar abilene_cost_network.statistics 	stabilization_time 	36060
scalar abilene_cost_network.statistics 	p_hit 	0.14284715973423
scalar abilene_cost_network.statistics 	interests 	115779.81818182
scalar abilene_cost_network.statistics 	data 	66578.272727273
scalar abilene_cost_network.statistics 	hdistance 	2.0177670415883
scalar abilene_cost_network.statistics 	avg_time 	0.008990098721
scalar abilene_cost_network.statistics 	downloads 	540683
scalar abilene_cost_network.statistics 	total_cost 	1271387
scalar abilene_cost_network.statistics 	total_replicas 	100000
scalar abilene_cost_network.statistics 	inner_hit 	0.33673520343713
scalar abilene_cost_network.statistics 	interests_sent 	541207
scalar abilene_cost_network.node[0].core_layer 	interests[0] 	131061
scalar abilene_cost_network.node[0].core_layer 	repo_load[0] 	115216
scalar abilene_cost_network.node[0].core_layer 	data[0] 	0
scalar abilene_cost_network.node[0].core_layer 	repo_int[0] 	358616
scalar abilene_cost_network.node[0].content_store 	p_hit[0] 	0.12089790250341
scalar abilene_cost_network.node[0].content_store 	hits[0] 	15845
scalar abilene_cost_network.node[0].content_store 	misses[0] 	115216
scalar abilene_cost_network.node[0].content_store 	decision_yes[0] 	115216
scalar abilene_cost_network.node[0].content_store 	decision_no[0] 	0
scalar abilene_cost_network.node[0].content_store 	decision_ratio[0] 	1
scalar abilene_cost_network.node[1].core_layer 	interests[1] 	309712
scalar abilene_cost_network.node[1].core_layer 	data[1] 	257611
scalar abilene_cost_network.node[1].content_store 	p_hit[1] 	0.16712623340394
scalar abilene_cost_network.node[1].content_store 	hits[1] 	51761
scalar abilene_cost_network.node[1].content_store 	misses[1] 	257951
scalar abilene_cost_network.node[1].content_store 	decision_yes[1] 	257611
scalar abilene_cost_network.node[1].content_store 	decision_no[1] 	0
scalar abilene_cost_network.node[1].content_store 	decision_ratio[1] 	1
scalar abilene_cost_network.node[2].core_layer 	interests[2] 	257939
scalar abilene_cost_network.node[2].core_layer 	repo_load[2] 	124173
scalar abilene_cost_network.node[2].core_layer 	data[2] 	127483
scalar abilene_cost_network.node[2].content_store 	p_hit[2] 	0.02435071858075
scalar abilene_cost_network.node[2].content_store 	hits[2] 	6281
scalar abilene_cost_network.node[2].content_store 	misses[2] 	251658
scalar abilene_cost_network.node[2].content_store 	decision_yes[2] 	251656
scalar abilene_cost_network.node[2].content_store 	decision_no[2] 	0
scalar abilene_cost_network.node[2].content_store 	decision_ratio[2] 	1
scalar abilene_cost_network.node[3].core_layer 	interests[3] 	213531
scalar abilene_cost_network.node[3].core_layer 	repo_load[3] 	119227
scalar abilene_cost_network.node[3].core_layer 	data[3] 	87793
scalar abilene_cost_network.node[3].content_store 	p_hit[3] 	0.030482693379416
scalar abilene_cost_network.node[3].content_store 	hits[3] 	6509
scalar abilene_cost_network.node[3].content_store 	misses[3] 	207022
scalar abilene_cost_network.node[3].content_store 	decision_yes[3] 	207020
scalar abilene_cost_network.node[3].content_store 	decision_no[3] 	0
scalar abilene_cost_network.node[3].content_store 	decision_ratio[3] 	1
scalar abilene_cost_network.node[4].core_layer 	interests[4] 	0
scalar abilene_cost_network.node[4].core_layer 	data[4] 	0
scalar abilene_cost_network.node[4].content_store 	p_hit[4] 	-nan
scalar abilene_cost_network.node[4].content_store 	hits[4] 	0
scalar abilene_cost_network.node[4].content_store 	misses[4] 	0
scalar abilene_cost_network.node[4].content_store 	decision_yes[4] 	0
scalar abilene_cost_network.node[4].content_store 	decision_no[4] 	0
scalar abilene_cost_network.node[4].content_store 	decision_ratio[4] 	0
scalar abilene_cost_network.node[5].core_layer 	interests[5] 	0
scalar abilene_cost_network.node[5].core_layer 	data[5] 	0
scalar abilene_cost_network.node[5].content_store 	p_hit[5] 	-nan
scalar abilene_cost_network.node[5].content_store 	hits[5] 	0
scalar abilene_cost_network.node[5].content_store 	misses[5] 	0
scalar abilene_cost_network.node[5].content_store 	decision_yes[5] 	0
scalar abilene_cost_network.node[5].content_store 	decision_no[5] 	0
scalar abilene_cost_network.node[5].content_store 	decision_ratio[5] 	0
scalar abilene_cost_network.node[6].core_layer 	interests[6] 	0
scalar abilene_cost_network.node[6].core_layer 	data[6] 	0
scalar abilene_cost_network.node[6].content_store 	p_hit[6] 	-nan
scalar abilene_cost_network.node[6].content_store 	hits[6] 	0
scalar abilene_cost_network.node[6].content_store 	misses[6] 	0
scalar abilene_cost_network.node[6].content_store 	decision_yes[6] 	0
scalar abilene_cost_network.node[6].content_store 	decision_no[6] 	0
scalar abilene_cost_network.node[6].content_store 	decision_ratio[6] 	0
scalar abilene_cost_network.node[7].core_layer 	interests[7] 	180693
scalar abilene_cost_network.node[7].core_layer 	data[7] 	130020
scalar abilene_cost_network.node[7].content_store 	p_hit[7] 	0.27951829899332
scalar abilene_cost_network.node[7].content_store 	hits[7] 	50507
scalar abilene_cost_network.node[7].content_store 	misses[7] 	130186
scalar abilene_cost_network.node[7].content_store 	decision_yes[7] 	130020
scalar abilene_cost_network.node[7].content_store 	decision_no[7] 	0
scalar abilene_cost_network.node[7].content_store 	decision_ratio[7] 	1
scalar abilene_cost_network.node[8].core_layer 	interests[8] 	0
scalar abilene_cost_network.node[8].core_layer 	data[8] 	0
scalar abilene_cost_network.node[8].content_store 	p_hit[8] 	-nan
scalar abilene_cost_network.node[8].content_store 	hits[8] 	0
scalar abilene_cost_network.node[8].content_store 	misses[8] 	0
scalar abilene_cost_network.node[8].content_store 	decision_yes[8] 	0
scalar abilene_cost_network.node[8].content_store 	decision_no[8] 	0
scalar abilene_cost_network.node[8].content_store 	decision_ratio[8] 	0
scalar abilene_cost_network.node[9].core_layer 	interests[9] 	0
scalar abilene_cost_network.node[9].core_layer 	data[9] 	0
scalar abilene_cost_network.node[9].content_store 	p_hit[9] 	-nan
scalar abilene_cost_network.node[9].content_store 	hits[9] 	0
scalar abilene_cost_network.node[9].content_store 	misses[9] 	0
scalar abilene_cost_network.node[9].content_store 	decision_yes[9] 	0
scalar abilene_cost_network.node[9].content_store 	decision_no[9] 	0
scalar abilene_cost_network.node[9].content_store 	decision_ratio[9] 	0
scalar abilene_cost_network.node[10].core_layer 	interests[10] 	180642
scalar abilene_cost_network.node[10].core_layer 	data[10] 	129454
scalar abilene_cost_network.node[10].content_store 	p_hit[10] 	0.28245922875079
scalar abilene_cost_network.node[10].content_store 	hits[10] 	51024
scalar abilene_cost_network.node[10].content_store 	misses[10] 	129618
scalar abilene_cost_network.node[10].content_store 	decision_yes[10] 	129454
scalar abilene_cost_network.node[10].content_store 	decision_no[10] 	0
scalar abilene_cost_network.node[10].content_store 	decision_ratio[10] 	1
scalar abilene_cost_network.client[1] 	hdistance[1] 	1.6727646122508
scalar abilene_cost_network.client[1] 	downloads[1] 	179678
scalar abilene_cost_network.client[1] 	avg_time[1] 	0.006894635552
scalar abilene_cost_network.client[1] 	interests_sent[1] 	179872
scalar abilene_cost_network.client[7] 	hdistance[7] 	2.337373356894
scalar abilene_cost_network.client[7] 	downloads[7] 	180527
scalar abilene_cost_network.client[7] 	avg_time[7] 	0.009667605824
scalar abilene_cost_network.client[7] 	interests_sent[7] 	180693
scalar abilene_cost_network.client[10] 	hdistance[10] 	2.0431631556201
scalar abilene_cost_network.client[10] 	downloads[10] 	180478
scalar abilene_cost_network.client[10] 	avg_time[10] 	0.010408054787
scalar abilene_cost_network.client[10] 	interests_sent[10] 	180642
