version 2
run General-10-20140904-11:23:42-24407
attr D lce
attr F spr
attr R lru
attr a 1
attr configname General
attr csize 1e3
attr ctlg 1e5
attr datetime 20140904-11:23:42
attr experiment General
attr inifile omnetpp.ini
attr iterationvars "$net=abilene_cost, $rep=3, $priceratiovalue=10, $weights=0.333_0.333_0.334, $lambda=100, $a=1, $ctlg=1e5, $F=spr, $ttl=10, $D=lce, $xi=1, $R=lru, $csize=1e3, $pricebits=0, $window=60, $variance=0.05, $mytime=1800"
attr iterationvars2 "$net=abilene_cost, $rep=3, $priceratiovalue=10, $weights=0.333_0.333_0.334, $lambda=100, $a=1, $ctlg=1e5, $F=spr, $ttl=10, $D=lce, $xi=1, $R=lru, $csize=1e3, $pricebits=0, $window=60, $variance=0.05, $mytime=1800, $repetition=0"
attr lambda 100
attr measurement "$net=abilene_cost, $rep=3, $priceratiovalue=10, $weights=0.333_0.333_0.334, $lambda=100, $a=1, $ctlg=1e5, $F=spr, $ttl=10, $D=lce, $xi=1, $R=lru, $csize=1e3, $pricebits=0, $window=60, $variance=0.05, $mytime=1800"
attr mytime 1800
attr net abilene_cost
attr network networks.${net=abilene_cost}_network
attr pricebits 0
attr priceratiovalue 10
attr processid 24407
attr rep 3
attr repetition 0
attr replication #0
attr resultdir results
attr runnumber 10
attr seedset 3
attr ttl 10
attr variance 0.05
attr weights 0.333_0.333_0.334
attr window 60
attr xi 1

scalar . 	a 	1
scalar . 	csize 	1e3
scalar . 	ctlg 	1e5
scalar . 	lambda 	100
scalar . 	mytime 	1800
scalar . 	pricebits 	0
scalar . 	priceratiovalue 	10
scalar . 	rep 	3
scalar . 	ttl 	10
scalar . 	variance 	0.05
scalar . 	window 	60
scalar . 	xi 	1
scalar abilene_cost_network.content_distribution 	repo-0 	9
scalar abilene_cost_network.content_distribution 	repo-1 	4
scalar abilene_cost_network.content_distribution 	repo-2 	0
scalar abilene_cost_network.content_distribution 	client-0 	9
scalar abilene_cost_network.content_distribution 	client-1 	0
scalar abilene_cost_network.content_distribution 	client-2 	1
scalar abilene_cost_network.content_distribution 	repo-0_card 	33498
scalar abilene_cost_network.content_distribution 	repo-0_price 	0
scalar abilene_cost_network.content_distribution 	repo-1_card 	33168
scalar abilene_cost_network.content_distribution 	repo-1_price 	10
scalar abilene_cost_network.content_distribution 	repo-2_card 	33334
scalar abilene_cost_network.content_distribution 	repo-2_price 	1
scalar abilene_cost_network.statistics 	repo_popularity[0] 	0.34820484875244
scalar abilene_cost_network.statistics 	repo_popularity[1] 	0.25519349814637
scalar abilene_cost_network.statistics 	repo_popularity[2] 	0.3966016531012
scalar abilene_cost_network.statistics 	stabilization_time 	36060
scalar abilene_cost_network.statistics 	p_hit 	0.14609896526417
scalar abilene_cost_network.statistics 	interests 	116068.27272727
scalar abilene_cost_network.statistics 	data 	67069
scalar abilene_cost_network.statistics 	hdistance 	2.0240883662679
scalar abilene_cost_network.statistics 	avg_time 	0.008667774542
scalar abilene_cost_network.statistics 	downloads 	538477
scalar abilene_cost_network.statistics 	total_cost 	1222123
scalar abilene_cost_network.statistics 	total_replicas 	100000
scalar abilene_cost_network.statistics 	inner_hit 	0.34657933393627
scalar abilene_cost_network.statistics 	interests_sent 	538989
scalar abilene_cost_network.node[0].core_layer 	interests[0] 	264981
scalar abilene_cost_network.node[0].core_layer 	repo_load[0] 	116553
scalar abilene_cost_network.node[0].core_layer 	data[0] 	91695
scalar abilene_cost_network.node[0].core_layer 	repo_int[0] 	351852
scalar abilene_cost_network.node[0].content_store 	p_hit[0] 	0.21345681388477
scalar abilene_cost_network.node[0].content_store 	hits[0] 	56562
scalar abilene_cost_network.node[0].content_store 	misses[0] 	208419
scalar abilene_cost_network.node[0].content_store 	decision_yes[0] 	208248
scalar abilene_cost_network.node[0].content_store 	decision_no[0] 	0
scalar abilene_cost_network.node[0].content_store 	decision_ratio[0] 	1
scalar abilene_cost_network.node[1].core_layer 	interests[1] 	223101
scalar abilene_cost_network.node[1].core_layer 	data[1] 	171967
scalar abilene_cost_network.node[1].content_store 	p_hit[1] 	0.2280805554435
scalar abilene_cost_network.node[1].content_store 	hits[1] 	50885
scalar abilene_cost_network.node[1].content_store 	misses[1] 	172216
scalar abilene_cost_network.node[1].content_store 	decision_yes[1] 	171967
scalar abilene_cost_network.node[1].content_store 	decision_no[1] 	0
scalar abilene_cost_network.node[1].content_store 	decision_ratio[1] 	1
scalar abilene_cost_network.node[2].core_layer 	interests[2] 	119133
scalar abilene_cost_network.node[2].core_layer 	data[2] 	110903
scalar abilene_cost_network.node[2].content_store 	p_hit[2] 	0.068855816608329
scalar abilene_cost_network.node[2].content_store 	hits[2] 	8203
scalar abilene_cost_network.node[2].content_store 	misses[2] 	110930
scalar abilene_cost_network.node[2].content_store 	decision_yes[2] 	110903
scalar abilene_cost_network.node[2].content_store 	decision_no[2] 	0
scalar abilene_cost_network.node[2].content_store 	decision_ratio[2] 	1
scalar abilene_cost_network.node[3].core_layer 	interests[3] 	110904
scalar abilene_cost_network.node[3].core_layer 	data[3] 	110575
scalar abilene_cost_network.node[3].content_store 	p_hit[3] 	0.0029755464185241
scalar abilene_cost_network.node[3].content_store 	hits[3] 	330
scalar abilene_cost_network.node[3].content_store 	misses[3] 	110574
scalar abilene_cost_network.node[3].content_store 	decision_yes[3] 	110575
scalar abilene_cost_network.node[3].content_store 	decision_no[3] 	0
scalar abilene_cost_network.node[3].content_store 	decision_ratio[3] 	1
scalar abilene_cost_network.node[4].core_layer 	interests[4] 	110575
scalar abilene_cost_network.node[4].core_layer 	repo_load[4] 	110557
scalar abilene_cost_network.node[4].core_layer 	data[4] 	0
scalar abilene_cost_network.node[4].content_store 	p_hit[4] 	0.00016278543974678
scalar abilene_cost_network.node[4].content_store 	hits[4] 	18
scalar abilene_cost_network.node[4].content_store 	misses[4] 	110557
scalar abilene_cost_network.node[4].content_store 	decision_yes[4] 	110557
scalar abilene_cost_network.node[4].content_store 	decision_no[4] 	0
scalar abilene_cost_network.node[4].content_store 	decision_ratio[4] 	1
scalar abilene_cost_network.node[5].core_layer 	interests[5] 	0
scalar abilene_cost_network.node[5].core_layer 	data[5] 	0
scalar abilene_cost_network.node[5].content_store 	p_hit[5] 	-nan
scalar abilene_cost_network.node[5].content_store 	hits[5] 	0
scalar abilene_cost_network.node[5].content_store 	misses[5] 	0
scalar abilene_cost_network.node[5].content_store 	decision_yes[5] 	0
scalar abilene_cost_network.node[5].content_store 	decision_no[5] 	0
scalar abilene_cost_network.node[5].content_store 	decision_ratio[5] 	0
scalar abilene_cost_network.node[6].core_layer 	interests[6] 	0
scalar abilene_cost_network.node[6].core_layer 	data[6] 	0
scalar abilene_cost_network.node[6].content_store 	p_hit[6] 	-nan
scalar abilene_cost_network.node[6].content_store 	hits[6] 	0
scalar abilene_cost_network.node[6].content_store 	misses[6] 	0
scalar abilene_cost_network.node[6].content_store 	decision_yes[6] 	0
scalar abilene_cost_network.node[6].content_store 	decision_no[6] 	0
scalar abilene_cost_network.node[6].content_store 	decision_ratio[6] 	0
scalar abilene_cost_network.node[7].core_layer 	interests[7] 	0
scalar abilene_cost_network.node[7].core_layer 	data[7] 	0
scalar abilene_cost_network.node[7].content_store 	p_hit[7] 	-nan
scalar abilene_cost_network.node[7].content_store 	hits[7] 	0
scalar abilene_cost_network.node[7].content_store 	misses[7] 	0
scalar abilene_cost_network.node[7].content_store 	decision_yes[7] 	0
scalar abilene_cost_network.node[7].content_store 	decision_no[7] 	0
scalar abilene_cost_network.node[7].content_store 	decision_ratio[7] 	0
scalar abilene_cost_network.node[8].core_layer 	interests[8] 	43477
scalar abilene_cost_network.node[8].core_layer 	data[8] 	37346
scalar abilene_cost_network.node[8].content_store 	p_hit[8] 	0.1410170894956
scalar abilene_cost_network.node[8].content_store 	hits[8] 	6131
scalar abilene_cost_network.node[8].content_store 	misses[8] 	37346
scalar abilene_cost_network.node[8].content_store 	decision_yes[8] 	37346
scalar abilene_cost_network.node[8].content_store 	decision_no[8] 	0
scalar abilene_cost_network.node[8].content_store 	decision_ratio[8] 	1
scalar abilene_cost_network.node[9].core_layer 	interests[9] 	264619
scalar abilene_cost_network.node[9].core_layer 	repo_load[9] 	124742
scalar abilene_cost_network.node[9].core_layer 	data[9] 	88076
scalar abilene_cost_network.node[9].content_store 	p_hit[9] 	0.19523541393475
scalar abilene_cost_network.node[9].content_store 	hits[9] 	51663
scalar abilene_cost_network.node[9].content_store 	misses[9] 	212956
scalar abilene_cost_network.node[9].content_store 	decision_yes[9] 	212818
scalar abilene_cost_network.node[9].content_store 	decision_no[9] 	0
scalar abilene_cost_network.node[9].content_store 	decision_ratio[9] 	1
scalar abilene_cost_network.node[10].core_layer 	interests[10] 	139961
scalar abilene_cost_network.node[10].core_layer 	data[10] 	127197
scalar abilene_cost_network.node[10].content_store 	p_hit[10] 	0.091025357063753
scalar abilene_cost_network.node[10].content_store 	hits[10] 	12740
scalar abilene_cost_network.node[10].content_store 	misses[10] 	127221
scalar abilene_cost_network.node[10].content_store 	decision_yes[10] 	127197
scalar abilene_cost_network.node[10].content_store 	decision_no[10] 	0
scalar abilene_cost_network.node[10].content_store 	decision_ratio[10] 	1
scalar abilene_cost_network.client[0] 	hdistance[0] 	2.0615415556337
scalar abilene_cost_network.client[0] 	downloads[0] 	179001
scalar abilene_cost_network.client[0] 	avg_time[0] 	0.008275964084
scalar abilene_cost_network.client[0] 	interests_sent[0] 	179172
scalar abilene_cost_network.client[1] 	hdistance[1] 	2.0387561487853
scalar abilene_cost_network.client[1] 	downloads[1] 	179507
scalar abilene_cost_network.client[1] 	avg_time[1] 	0.008818591777
scalar abilene_cost_network.client[1] 	interests_sent[1] 	179710
scalar abilene_cost_network.client[9] 	hdistance[9] 	1.9719673943846
scalar abilene_cost_network.client[9] 	downloads[9] 	179969
scalar abilene_cost_network.client[9] 	avg_time[9] 	0.008908767766
scalar abilene_cost_network.client[9] 	interests_sent[9] 	180107
