version 2
run General-2-20140904-11:38:06-24185
attr D lce
attr F spr
attr R lru
attr a 1
attr configname General
attr csize 1e3
attr ctlg 1e5
attr datetime 20140904-11:38:06
attr experiment General
attr inifile omnetpp.ini
attr iterationvars "$net=abilene_cost, $rep=5, $priceratiovalue=10, $weights=0.333_0.333_0.334, $lambda=100, $a=1, $ctlg=1e5, $F=spr, $ttl=10, $D=lce, $xi=1, $R=lru, $csize=1e3, $pricebits=0, $window=60, $variance=0.05, $mytime=1800"
attr iterationvars2 "$net=abilene_cost, $rep=5, $priceratiovalue=10, $weights=0.333_0.333_0.334, $lambda=100, $a=1, $ctlg=1e5, $F=spr, $ttl=10, $D=lce, $xi=1, $R=lru, $csize=1e3, $pricebits=0, $window=60, $variance=0.05, $mytime=1800, $repetition=0"
attr lambda 100
attr measurement "$net=abilene_cost, $rep=5, $priceratiovalue=10, $weights=0.333_0.333_0.334, $lambda=100, $a=1, $ctlg=1e5, $F=spr, $ttl=10, $D=lce, $xi=1, $R=lru, $csize=1e3, $pricebits=0, $window=60, $variance=0.05, $mytime=1800"
attr mytime 1800
attr net abilene_cost
attr network networks.${net=abilene_cost}_network
attr pricebits 0
attr priceratiovalue 10
attr processid 24185
attr rep 5
attr repetition 0
attr replication #0
attr resultdir results
attr runnumber 2
attr seedset 5
attr ttl 10
attr variance 0.05
attr weights 0.333_0.333_0.334
attr window 60
attr xi 1

scalar . 	a 	1
scalar . 	csize 	1e3
scalar . 	ctlg 	1e5
scalar . 	lambda 	100
scalar . 	mytime 	1800
scalar . 	pricebits 	0
scalar . 	priceratiovalue 	10
scalar . 	rep 	5
scalar . 	ttl 	10
scalar . 	variance 	0.05
scalar . 	window 	60
scalar . 	xi 	1
scalar abilene_cost_network.content_distribution 	repo-0 	9
scalar abilene_cost_network.content_distribution 	repo-1 	5
scalar abilene_cost_network.content_distribution 	repo-2 	1
scalar abilene_cost_network.content_distribution 	client-0 	4
scalar abilene_cost_network.content_distribution 	client-1 	9
scalar abilene_cost_network.content_distribution 	client-2 	0
scalar abilene_cost_network.content_distribution 	repo-0_card 	33098
scalar abilene_cost_network.content_distribution 	repo-0_price 	1
scalar abilene_cost_network.content_distribution 	repo-1_card 	33495
scalar abilene_cost_network.content_distribution 	repo-1_price 	10
scalar abilene_cost_network.content_distribution 	repo-2_card 	33407
scalar abilene_cost_network.content_distribution 	repo-2_price 	0
scalar abilene_cost_network.statistics 	repo_popularity[0] 	0.31037770261398
scalar abilene_cost_network.statistics 	repo_popularity[1] 	0.29913869324176
scalar abilene_cost_network.statistics 	repo_popularity[2] 	0.39048360414427
scalar abilene_cost_network.statistics 	stabilization_time 	63.4
scalar abilene_cost_network.statistics 	p_hit 	0.12925317445172
scalar abilene_cost_network.statistics 	interests 	133859.90909091
scalar abilene_cost_network.statistics 	data 	84755.181818182
scalar abilene_cost_network.statistics 	hdistance 	2.3745928032956
scalar abilene_cost_network.statistics 	avg_time 	0.011394022972
scalar abilene_cost_network.statistics 	downloads 	539545
scalar abilene_cost_network.statistics 	total_cost 	1216762
scalar abilene_cost_network.statistics 	total_replicas 	100000
scalar abilene_cost_network.statistics 	inner_hit 	0.35277502339935
scalar abilene_cost_network.statistics 	interests_sent 	540154
scalar abilene_cost_network.node[0].core_layer 	interests[0] 	180792
scalar abilene_cost_network.node[0].core_layer 	data[0] 	129909
scalar abilene_cost_network.node[0].core_layer 	repo_int[0] 	349207
scalar abilene_cost_network.node[0].content_store 	p_hit[0] 	0.28028895083853
scalar abilene_cost_network.node[0].content_store 	hits[0] 	50674
scalar abilene_cost_network.node[0].content_store 	misses[0] 	130118
scalar abilene_cost_network.node[0].content_store 	decision_yes[0] 	129909
scalar abilene_cost_network.node[0].content_store 	decision_no[0] 	0
scalar abilene_cost_network.node[0].content_store 	decision_ratio[0] 	1
scalar abilene_cost_network.node[1].core_layer 	interests[1] 	173134
scalar abilene_cost_network.node[1].core_layer 	repo_load[1] 	119790
scalar abilene_cost_network.node[1].core_layer 	data[1] 	41979
scalar abilene_cost_network.node[1].content_store 	p_hit[1] 	0.065648572781776
scalar abilene_cost_network.node[1].content_store 	hits[1] 	11366
scalar abilene_cost_network.node[1].content_store 	misses[1] 	161768
scalar abilene_cost_network.node[1].content_store 	decision_yes[1] 	161769
scalar abilene_cost_network.node[1].content_store 	decision_no[1] 	0
scalar abilene_cost_network.node[1].content_store 	decision_ratio[1] 	1
scalar abilene_cost_network.node[2].core_layer 	interests[2] 	130302
scalar abilene_cost_network.node[2].core_layer 	data[2] 	129998
scalar abilene_cost_network.node[2].content_store 	p_hit[2] 	0.0023330417031204
scalar abilene_cost_network.node[2].content_store 	hits[2] 	304
scalar abilene_cost_network.node[2].content_store 	misses[2] 	129998
scalar abilene_cost_network.node[2].content_store 	decision_yes[2] 	129998
scalar abilene_cost_network.node[2].content_store 	decision_no[2] 	0
scalar abilene_cost_network.node[2].content_store 	decision_ratio[2] 	1
scalar abilene_cost_network.node[3].core_layer 	interests[3] 	132295
scalar abilene_cost_network.node[3].core_layer 	data[3] 	130068
scalar abilene_cost_network.node[3].content_store 	p_hit[3] 	0.016833591594543
scalar abilene_cost_network.node[3].content_store 	hits[3] 	2227
scalar abilene_cost_network.node[3].content_store 	misses[3] 	130068
scalar abilene_cost_network.node[3].content_store 	decision_yes[3] 	130068
scalar abilene_cost_network.node[3].content_store 	decision_no[3] 	0
scalar abilene_cost_network.node[3].content_store 	decision_ratio[3] 	1
scalar abilene_cost_network.node[4].core_layer 	interests[4] 	221787
scalar abilene_cost_network.node[4].core_layer 	data[4] 	170977
scalar abilene_cost_network.node[4].content_store 	p_hit[4] 	0.22800254298043
scalar abilene_cost_network.node[4].content_store 	hits[4] 	50568
scalar abilene_cost_network.node[4].content_store 	misses[4] 	171219
scalar abilene_cost_network.node[4].content_store 	decision_yes[4] 	170977
scalar abilene_cost_network.node[4].content_store 	decision_no[4] 	0
scalar abilene_cost_network.node[4].content_store 	decision_ratio[4] 	1
scalar abilene_cost_network.node[5].core_layer 	interests[5] 	117135
scalar abilene_cost_network.node[5].core_layer 	repo_load[5] 	109705
scalar abilene_cost_network.node[5].core_layer 	data[5] 	0
scalar abilene_cost_network.node[5].content_store 	p_hit[5] 	0.063431083792206
scalar abilene_cost_network.node[5].content_store 	hits[5] 	7430
scalar abilene_cost_network.node[5].content_store 	misses[5] 	109705
scalar abilene_cost_network.node[5].content_store 	decision_yes[5] 	109705
scalar abilene_cost_network.node[5].content_store 	decision_no[5] 	0
scalar abilene_cost_network.node[5].content_store 	decision_ratio[5] 	1
scalar abilene_cost_network.node[6].core_layer 	interests[6] 	36898
scalar abilene_cost_network.node[6].core_layer 	data[6] 	36708
scalar abilene_cost_network.node[6].content_store 	p_hit[6] 	0.0051493305870237
scalar abilene_cost_network.node[6].content_store 	hits[6] 	190
scalar abilene_cost_network.node[6].content_store 	misses[6] 	36708
scalar abilene_cost_network.node[6].content_store 	decision_yes[6] 	36708
scalar abilene_cost_network.node[6].content_store 	decision_no[6] 	0
scalar abilene_cost_network.node[6].content_store 	decision_ratio[6] 	1
scalar abilene_cost_network.node[7].core_layer 	interests[7] 	40047
scalar abilene_cost_network.node[7].core_layer 	data[7] 	36898
scalar abilene_cost_network.node[7].content_store 	p_hit[7] 	0.078632606687143
scalar abilene_cost_network.node[7].content_store 	hits[7] 	3149
scalar abilene_cost_network.node[7].content_store 	misses[7] 	36898
scalar abilene_cost_network.node[7].content_store 	decision_yes[7] 	36898
scalar abilene_cost_network.node[7].content_store 	decision_no[7] 	0
scalar abilene_cost_network.node[7].content_store 	decision_ratio[7] 	1
scalar abilene_cost_network.node[8].core_layer 	interests[8] 	86906
scalar abilene_cost_network.node[8].core_layer 	data[8] 	82021
scalar abilene_cost_network.node[8].content_store 	p_hit[8] 	0.056210158101857
scalar abilene_cost_network.node[8].content_store 	hits[8] 	4885
scalar abilene_cost_network.node[8].content_store 	misses[8] 	82021
scalar abilene_cost_network.node[8].content_store 	decision_yes[8] 	82021
scalar abilene_cost_network.node[8].content_store 	decision_no[8] 	0
scalar abilene_cost_network.node[8].content_store 	decision_ratio[8] 	1
scalar abilene_cost_network.node[9].core_layer 	interests[9] 	263146
scalar abilene_cost_network.node[9].core_layer 	repo_load[9] 	119712
scalar abilene_cost_network.node[9].core_layer 	data[9] 	89622
scalar abilene_cost_network.node[9].content_store 	p_hit[9] 	0.20382981310755
scalar abilene_cost_network.node[9].content_store 	hits[9] 	53637
scalar abilene_cost_network.node[9].content_store 	misses[9] 	209509
scalar abilene_cost_network.node[9].content_store 	decision_yes[9] 	209334
scalar abilene_cost_network.node[9].content_store 	decision_no[9] 	0
scalar abilene_cost_network.node[9].content_store 	decision_ratio[9] 	1
scalar abilene_cost_network.node[10].core_layer 	interests[10] 	90017
scalar abilene_cost_network.node[10].core_layer 	data[10] 	84127
scalar abilene_cost_network.node[10].content_store 	p_hit[10] 	0.065432085050602
scalar abilene_cost_network.node[10].content_store 	hits[10] 	5890
scalar abilene_cost_network.node[10].content_store 	misses[10] 	84127
scalar abilene_cost_network.node[10].content_store 	decision_yes[10] 	84127
scalar abilene_cost_network.node[10].content_store 	decision_no[10] 	0
scalar abilene_cost_network.node[10].content_store 	decision_ratio[10] 	1
scalar abilene_cost_network.client[0] 	hdistance[0] 	2.5109506431946
scalar abilene_cost_network.client[0] 	downloads[0] 	180583
scalar abilene_cost_network.client[0] 	avg_time[0] 	0.012443751952
scalar abilene_cost_network.client[0] 	interests_sent[0] 	180792
scalar abilene_cost_network.client[4] 	hdistance[4] 	2.5981692498484
scalar abilene_cost_network.client[4] 	downloads[4] 	179817
scalar abilene_cost_network.client[4] 	avg_time[4] 	0.011617895563
scalar abilene_cost_network.client[4] 	interests_sent[4] 	180042
scalar abilene_cost_network.client[9] 	hdistance[9] 	2.0146585168439
scalar abilene_cost_network.client[9] 	downloads[9] 	179145
scalar abilene_cost_network.client[9] 	avg_time[9] 	0.010120421401
scalar abilene_cost_network.client[9] 	interests_sent[9] 	179320
