version 2
run General-14-20140904-11:29:26-24421
attr D lce
attr F spr
attr R lru
attr a 1
attr configname General
attr csize 1e3
attr ctlg 1e5
attr datetime 20140904-11:29:26
attr experiment General
attr inifile omnetpp.ini
attr iterationvars "$net=abilene_cost, $rep=4, $priceratiovalue=10, $weights=0.333_0.333_0.334, $lambda=100, $a=1, $ctlg=1e5, $F=spr, $ttl=10, $D=lce, $xi=1, $R=lru, $csize=1e3, $pricebits=0, $window=60, $variance=0.05, $mytime=1800"
attr iterationvars2 "$net=abilene_cost, $rep=4, $priceratiovalue=10, $weights=0.333_0.333_0.334, $lambda=100, $a=1, $ctlg=1e5, $F=spr, $ttl=10, $D=lce, $xi=1, $R=lru, $csize=1e3, $pricebits=0, $window=60, $variance=0.05, $mytime=1800, $repetition=0"
attr lambda 100
attr measurement "$net=abilene_cost, $rep=4, $priceratiovalue=10, $weights=0.333_0.333_0.334, $lambda=100, $a=1, $ctlg=1e5, $F=spr, $ttl=10, $D=lce, $xi=1, $R=lru, $csize=1e3, $pricebits=0, $window=60, $variance=0.05, $mytime=1800"
attr mytime 1800
attr net abilene_cost
attr network networks.${net=abilene_cost}_network
attr pricebits 0
attr priceratiovalue 10
attr processid 24421
attr rep 4
attr repetition 0
attr replication #0
attr resultdir results
attr runnumber 14
attr seedset 4
attr ttl 10
attr variance 0.05
attr weights 0.333_0.333_0.334
attr window 60
attr xi 1

scalar . 	a 	1
scalar . 	csize 	1e3
scalar . 	ctlg 	1e5
scalar . 	lambda 	100
scalar . 	mytime 	1800
scalar . 	pricebits 	0
scalar . 	priceratiovalue 	10
scalar . 	rep 	4
scalar . 	ttl 	10
scalar . 	variance 	0.05
scalar . 	window 	60
scalar . 	xi 	1
scalar abilene_cost_network.content_distribution 	repo-0 	2
scalar abilene_cost_network.content_distribution 	repo-1 	0
scalar abilene_cost_network.content_distribution 	repo-2 	10
scalar abilene_cost_network.content_distribution 	client-0 	6
scalar abilene_cost_network.content_distribution 	client-1 	2
scalar abilene_cost_network.content_distribution 	client-2 	4
scalar abilene_cost_network.content_distribution 	repo-0_card 	33274
scalar abilene_cost_network.content_distribution 	repo-0_price 	0
scalar abilene_cost_network.content_distribution 	repo-1_card 	33153
scalar abilene_cost_network.content_distribution 	repo-1_price 	1
scalar abilene_cost_network.content_distribution 	repo-2_card 	33573
scalar abilene_cost_network.content_distribution 	repo-2_price 	10
scalar abilene_cost_network.statistics 	repo_popularity[0] 	0.33945880017902
scalar abilene_cost_network.statistics 	repo_popularity[1] 	0.30988277584688
scalar abilene_cost_network.statistics 	repo_popularity[2] 	0.35065842397411
scalar abilene_cost_network.statistics 	stabilization_time 	36060
scalar abilene_cost_network.statistics 	p_hit 	0.11590063521567
scalar abilene_cost_network.statistics 	interests 	148195.90909091
scalar abilene_cost_network.statistics 	data 	99105.090909091
scalar abilene_cost_network.statistics 	hdistance 	2.6723522732371
scalar abilene_cost_network.statistics 	avg_time 	0.012687234565
scalar abilene_cost_network.statistics 	downloads 	539208
scalar abilene_cost_network.statistics 	total_cost 	1234054
scalar abilene_cost_network.statistics 	total_replicas 	100000
scalar abilene_cost_network.statistics 	inner_hit 	0.35117616949303
scalar abilene_cost_network.statistics 	interests_sent 	540009
scalar abilene_cost_network.node[0].core_layer 	interests[0] 	120419
scalar abilene_cost_network.node[0].core_layer 	repo_load[0] 	112234
scalar abilene_cost_network.node[0].core_layer 	data[0] 	0
scalar abilene_cost_network.node[0].core_layer 	repo_int[0] 	349851
scalar abilene_cost_network.node[0].content_store 	p_hit[0] 	0.067971001253955
scalar abilene_cost_network.node[0].content_store 	hits[0] 	8185
scalar abilene_cost_network.node[0].content_store 	misses[0] 	112234
scalar abilene_cost_network.node[0].content_store 	decision_yes[0] 	112234
scalar abilene_cost_network.node[0].content_store 	decision_no[0] 	0
scalar abilene_cost_network.node[0].content_store 	decision_ratio[0] 	1
scalar abilene_cost_network.node[1].core_layer 	interests[1] 	213038
scalar abilene_cost_network.node[1].core_layer 	data[1] 	205387
scalar abilene_cost_network.node[1].content_store 	p_hit[1] 	0.035923168636581
scalar abilene_cost_network.node[1].content_store 	hits[1] 	7653
scalar abilene_cost_network.node[1].content_store 	misses[1] 	205385
scalar abilene_cost_network.node[1].content_store 	decision_yes[1] 	205387
scalar abilene_cost_network.node[1].content_store 	decision_no[1] 	0
scalar abilene_cost_network.node[1].content_store 	decision_ratio[1] 	1
scalar abilene_cost_network.node[2].core_layer 	interests[2] 	388958
scalar abilene_cost_network.node[2].core_layer 	repo_load[2] 	125435
scalar abilene_cost_network.node[2].core_layer 	data[2] 	213040
scalar abilene_cost_network.node[2].content_store 	p_hit[2] 	0.12812180235398
scalar abilene_cost_network.node[2].content_store 	hits[2] 	49834
scalar abilene_cost_network.node[2].content_store 	misses[2] 	339124
scalar abilene_cost_network.node[2].content_store 	decision_yes[2] 	338475
scalar abilene_cost_network.node[2].content_store 	decision_no[2] 	0
scalar abilene_cost_network.node[2].content_store 	decision_ratio[2] 	1
scalar abilene_cost_network.node[3].core_layer 	interests[3] 	215681
scalar abilene_cost_network.node[3].core_layer 	data[3] 	209056
scalar abilene_cost_network.node[3].content_store 	p_hit[3] 	0.030229830165847
scalar abilene_cost_network.node[3].content_store 	hits[3] 	6520
scalar abilene_cost_network.node[3].content_store 	misses[3] 	209161
scalar abilene_cost_network.node[3].content_store 	decision_yes[3] 	209056
scalar abilene_cost_network.node[3].content_store 	decision_no[3] 	0
scalar abilene_cost_network.node[3].content_store 	decision_ratio[3] 	1
scalar abilene_cost_network.node[4].core_layer 	interests[4] 	180072
scalar abilene_cost_network.node[4].core_layer 	data[4] 	129478
scalar abilene_cost_network.node[4].content_store 	p_hit[4] 	0.27993247145586
scalar abilene_cost_network.node[4].content_store 	hits[4] 	50408
scalar abilene_cost_network.node[4].content_store 	misses[4] 	129664
scalar abilene_cost_network.node[4].content_store 	decision_yes[4] 	129478
scalar abilene_cost_network.node[4].content_store 	decision_no[4] 	0
scalar abilene_cost_network.node[4].content_store 	decision_ratio[4] 	1
scalar abilene_cost_network.node[5].core_layer 	interests[5] 	0
scalar abilene_cost_network.node[5].core_layer 	data[5] 	0
scalar abilene_cost_network.node[5].content_store 	p_hit[5] 	-nan
scalar abilene_cost_network.node[5].content_store 	hits[5] 	0
scalar abilene_cost_network.node[5].content_store 	misses[5] 	0
scalar abilene_cost_network.node[5].content_store 	decision_yes[5] 	0
scalar abilene_cost_network.node[5].content_store 	decision_no[5] 	0
scalar abilene_cost_network.node[5].content_store 	decision_ratio[5] 	0
scalar abilene_cost_network.node[6].core_layer 	interests[6] 	180033
scalar abilene_cost_network.node[6].core_layer 	data[6] 	129629
scalar abilene_cost_network.node[6].content_store 	p_hit[6] 	0.2784378419512
scalar abilene_cost_network.node[6].content_store 	hits[6] 	50128
scalar abilene_cost_network.node[6].content_store 	misses[6] 	129905
scalar abilene_cost_network.node[6].content_store 	decision_yes[6] 	129629
scalar abilene_cost_network.node[6].content_store 	decision_no[6] 	0
scalar abilene_cost_network.node[6].content_store 	decision_ratio[6] 	1
scalar abilene_cost_network.node[7].core_layer 	interests[7] 	129626
scalar abilene_cost_network.node[7].core_layer 	data[7] 	128822
scalar abilene_cost_network.node[7].content_store 	p_hit[7] 	0.0062178883865891
scalar abilene_cost_network.node[7].content_store 	hits[7] 	806
scalar abilene_cost_network.node[7].content_store 	misses[7] 	128820
scalar abilene_cost_network.node[7].content_store 	decision_yes[7] 	128822
scalar abilene_cost_network.node[7].content_store 	decision_no[7] 	0
scalar abilene_cost_network.node[7].content_store 	decision_ratio[7] 	1
scalar abilene_cost_network.node[8].core_layer 	interests[8] 	42617
scalar abilene_cost_network.node[8].core_layer 	data[8] 	37491
scalar abilene_cost_network.node[8].content_store 	p_hit[8] 	0.12028063918155
scalar abilene_cost_network.node[8].content_store 	hits[8] 	5126
scalar abilene_cost_network.node[8].content_store 	misses[8] 	37491
scalar abilene_cost_network.node[8].content_store 	decision_yes[8] 	37491
scalar abilene_cost_network.node[8].content_store 	decision_no[8] 	0
scalar abilene_cost_network.node[8].content_store 	decision_ratio[8] 	1
scalar abilene_cost_network.node[9].core_layer 	interests[9] 	37491
scalar abilene_cost_network.node[9].core_layer 	data[9] 	37253
scalar abilene_cost_network.node[9].content_store 	p_hit[9] 	0.0063481902323224
scalar abilene_cost_network.node[9].content_store 	hits[9] 	238
scalar abilene_cost_network.node[9].content_store 	misses[9] 	37253
scalar abilene_cost_network.node[9].content_store 	decision_yes[9] 	37253
scalar abilene_cost_network.node[9].content_store 	decision_no[9] 	0
scalar abilene_cost_network.node[9].content_store 	decision_ratio[9] 	1
scalar abilene_cost_network.node[10].core_layer 	interests[10] 	122220
scalar abilene_cost_network.node[10].core_layer 	repo_load[10] 	112182
scalar abilene_cost_network.node[10].core_layer 	data[10] 	0
scalar abilene_cost_network.node[10].content_store 	p_hit[10] 	0.08213058419244
scalar abilene_cost_network.node[10].content_store 	hits[10] 	10038
scalar abilene_cost_network.node[10].content_store 	misses[10] 	112182
scalar abilene_cost_network.node[10].content_store 	decision_yes[10] 	112182
scalar abilene_cost_network.node[10].content_store 	decision_no[10] 	0
scalar abilene_cost_network.node[10].content_store 	decision_ratio[10] 	1
scalar abilene_cost_network.client[2] 	hdistance[2] 	1.6855679002033
scalar abilene_cost_network.client[2] 	downloads[2] 	179565
scalar abilene_cost_network.client[2] 	avg_time[2] 	0.008200349995
scalar abilene_cost_network.client[2] 	interests_sent[2] 	179904
scalar abilene_cost_network.client[4] 	hdistance[4] 	2.957723224709
scalar abilene_cost_network.client[4] 	downloads[4] 	179886
scalar abilene_cost_network.client[4] 	avg_time[4] 	0.012000707005
scalar abilene_cost_network.client[4] 	interests_sent[4] 	180072
scalar abilene_cost_network.client[6] 	hdistance[6] 	3.3737656947991
scalar abilene_cost_network.client[6] 	downloads[6] 	179757
scalar abilene_cost_network.client[6] 	avg_time[6] 	0.017860646696
scalar abilene_cost_network.client[6] 	interests_sent[6] 	180033
