version 2
run General-6-20140904-11:38:06-24189
attr D lce
attr F spr
attr R lru
attr a 1
attr configname General
attr csize 1e3
attr ctlg 1e5
attr datetime 20140904-11:38:06
attr experiment General
attr inifile omnetpp.ini
attr iterationvars "$net=abilene_cost, $rep=6, $priceratiovalue=10, $weights=0.333_0.333_0.334, $lambda=100, $a=1, $ctlg=1e5, $F=spr, $ttl=10, $D=lce, $xi=1, $R=lru, $csize=1e3, $pricebits=0, $window=60, $variance=0.05, $mytime=1800"
attr iterationvars2 "$net=abilene_cost, $rep=6, $priceratiovalue=10, $weights=0.333_0.333_0.334, $lambda=100, $a=1, $ctlg=1e5, $F=spr, $ttl=10, $D=lce, $xi=1, $R=lru, $csize=1e3, $pricebits=0, $window=60, $variance=0.05, $mytime=1800, $repetition=0"
attr lambda 100
attr measurement "$net=abilene_cost, $rep=6, $priceratiovalue=10, $weights=0.333_0.333_0.334, $lambda=100, $a=1, $ctlg=1e5, $F=spr, $ttl=10, $D=lce, $xi=1, $R=lru, $csize=1e3, $pricebits=0, $window=60, $variance=0.05, $mytime=1800"
attr mytime 1800
attr net abilene_cost
attr network networks.${net=abilene_cost}_network
attr pricebits 0
attr priceratiovalue 10
attr processid 24189
attr rep 6
attr repetition 0
attr replication #0
attr resultdir results
attr runnumber 6
attr seedset 6
attr ttl 10
attr variance 0.05
attr weights 0.333_0.333_0.334
attr window 60
attr xi 1

scalar . 	a 	1
scalar . 	csize 	1e3
scalar . 	ctlg 	1e5
scalar . 	lambda 	100
scalar . 	mytime 	1800
scalar . 	pricebits 	0
scalar . 	priceratiovalue 	10
scalar . 	rep 	6
scalar . 	ttl 	10
scalar . 	variance 	0.05
scalar . 	window 	60
scalar . 	xi 	1
scalar abilene_cost_network.content_distribution 	repo-0 	5
scalar abilene_cost_network.content_distribution 	repo-1 	2
scalar abilene_cost_network.content_distribution 	repo-2 	8
scalar abilene_cost_network.content_distribution 	client-0 	4
scalar abilene_cost_network.content_distribution 	client-1 	10
scalar abilene_cost_network.content_distribution 	client-2 	2
scalar abilene_cost_network.content_distribution 	repo-0_card 	33434
scalar abilene_cost_network.content_distribution 	repo-0_price 	1
scalar abilene_cost_network.content_distribution 	repo-1_card 	33143
scalar abilene_cost_network.content_distribution 	repo-1_price 	10
scalar abilene_cost_network.content_distribution 	repo-2_card 	33423
scalar abilene_cost_network.content_distribution 	repo-2_price 	0
scalar abilene_cost_network.statistics 	repo_popularity[0] 	0.41241466788296
scalar abilene_cost_network.statistics 	repo_popularity[1] 	0.27822505478955
scalar abilene_cost_network.statistics 	repo_popularity[2] 	0.3093602773275
scalar abilene_cost_network.statistics 	stabilization_time 	36060
scalar abilene_cost_network.statistics 	p_hit 	0.14048382937326
scalar abilene_cost_network.statistics 	interests 	122323.36363636
scalar abilene_cost_network.statistics 	data 	73230
scalar abilene_cost_network.statistics 	hdistance 	2.1437670492737
scalar abilene_cost_network.statistics 	avg_time 	0.008781404691
scalar abilene_cost_network.statistics 	downloads 	539480
scalar abilene_cost_network.statistics 	total_cost 	1364506
scalar abilene_cost_network.statistics 	total_replicas 	100000
scalar abilene_cost_network.statistics 	inner_hit 	0.35072291836583
scalar abilene_cost_network.statistics 	interests_sent 	540026
scalar abilene_cost_network.node[0].core_layer 	interests[0] 	0
scalar abilene_cost_network.node[0].core_layer 	data[0] 	0
scalar abilene_cost_network.node[0].core_layer 	repo_int[0] 	350272
scalar abilene_cost_network.node[0].content_store 	p_hit[0] 	-nan
scalar abilene_cost_network.node[0].content_store 	hits[0] 	0
scalar abilene_cost_network.node[0].content_store 	misses[0] 	0
scalar abilene_cost_network.node[0].content_store 	decision_yes[0] 	0
scalar abilene_cost_network.node[0].content_store 	decision_no[0] 	0
scalar abilene_cost_network.node[0].content_store 	decision_ratio[0] 	0
scalar abilene_cost_network.node[1].core_layer 	interests[1] 	86170
scalar abilene_cost_network.node[1].core_layer 	data[1] 	82895
scalar abilene_cost_network.node[1].content_store 	p_hit[1] 	0.037994661715214
scalar abilene_cost_network.node[1].content_store 	hits[1] 	3274
scalar abilene_cost_network.node[1].content_store 	misses[1] 	82896
scalar abilene_cost_network.node[1].content_store 	decision_yes[1] 	82895
scalar abilene_cost_network.node[1].content_store 	decision_no[1] 	0
scalar abilene_cost_network.node[1].content_store 	decision_ratio[1] 	1
scalar abilene_cost_network.node[2].core_layer 	interests[2] 	352878
scalar abilene_cost_network.node[2].core_layer 	repo_load[2] 	125038
scalar abilene_cost_network.node[2].core_layer 	data[2] 	172755
scalar abilene_cost_network.node[2].content_store 	p_hit[2] 	0.15533697198465
scalar abilene_cost_network.node[2].content_store 	hits[2] 	54815
scalar abilene_cost_network.node[2].content_store 	misses[2] 	298063
scalar abilene_cost_network.node[2].content_store 	decision_yes[2] 	297793
scalar abilene_cost_network.node[2].content_store 	decision_no[2] 	0
scalar abilene_cost_network.node[2].content_store 	decision_ratio[2] 	1
scalar abilene_cost_network.node[3].core_layer 	interests[3] 	177082
scalar abilene_cost_network.node[3].core_layer 	data[3] 	172502
scalar abilene_cost_network.node[3].content_store 	p_hit[3] 	0.025858077049051
scalar abilene_cost_network.node[3].content_store 	hits[3] 	4579
scalar abilene_cost_network.node[3].content_store 	misses[3] 	172503
scalar abilene_cost_network.node[3].content_store 	decision_yes[3] 	172502
scalar abilene_cost_network.node[3].content_store 	decision_no[3] 	0
scalar abilene_cost_network.node[3].content_store 	decision_ratio[3] 	1
scalar abilene_cost_network.node[4].core_layer 	interests[4] 	262814
scalar abilene_cost_network.node[4].core_layer 	data[4] 	211184
scalar abilene_cost_network.node[4].content_store 	p_hit[4] 	0.19550708866347
scalar abilene_cost_network.node[4].content_store 	hits[4] 	51382
scalar abilene_cost_network.node[4].content_store 	misses[4] 	211432
scalar abilene_cost_network.node[4].content_store 	decision_yes[4] 	211184
scalar abilene_cost_network.node[4].content_store 	decision_no[4] 	0
scalar abilene_cost_network.node[4].content_store 	decision_ratio[4] 	1
scalar abilene_cost_network.node[5].core_layer 	interests[5] 	120180
scalar abilene_cost_network.node[5].core_layer 	repo_load[5] 	114126
scalar abilene_cost_network.node[5].core_layer 	data[5] 	0
scalar abilene_cost_network.node[5].content_store 	p_hit[5] 	0.050374438342486
scalar abilene_cost_network.node[5].content_store 	hits[5] 	6054
scalar abilene_cost_network.node[5].content_store 	misses[5] 	114126
scalar abilene_cost_network.node[5].content_store 	decision_yes[5] 	114126
scalar abilene_cost_network.node[5].content_store 	decision_no[5] 	0
scalar abilene_cost_network.node[5].content_store 	decision_ratio[5] 	1
scalar abilene_cost_network.node[6].core_layer 	interests[6] 	0
scalar abilene_cost_network.node[6].core_layer 	data[6] 	0
scalar abilene_cost_network.node[6].content_store 	p_hit[6] 	-nan
scalar abilene_cost_network.node[6].content_store 	hits[6] 	0
scalar abilene_cost_network.node[6].content_store 	misses[6] 	0
scalar abilene_cost_network.node[6].content_store 	decision_yes[6] 	0
scalar abilene_cost_network.node[6].content_store 	decision_no[6] 	0
scalar abilene_cost_network.node[6].content_store 	decision_ratio[6] 	0
scalar abilene_cost_network.node[7].core_layer 	interests[7] 	0
scalar abilene_cost_network.node[7].core_layer 	data[7] 	0
scalar abilene_cost_network.node[7].content_store 	p_hit[7] 	-nan
scalar abilene_cost_network.node[7].content_store 	hits[7] 	0
scalar abilene_cost_network.node[7].content_store 	misses[7] 	0
scalar abilene_cost_network.node[7].content_store 	decision_yes[7] 	0
scalar abilene_cost_network.node[7].content_store 	decision_no[7] 	0
scalar abilene_cost_network.node[7].content_store 	decision_ratio[7] 	0
scalar abilene_cost_network.node[8].core_layer 	interests[8] 	124019
scalar abilene_cost_network.node[8].core_layer 	repo_load[8] 	111108
scalar abilene_cost_network.node[8].core_layer 	data[8] 	0
scalar abilene_cost_network.node[8].content_store 	p_hit[8] 	0.10410501616688
scalar abilene_cost_network.node[8].content_store 	hits[8] 	12911
scalar abilene_cost_network.node[8].content_store 	misses[8] 	111108
scalar abilene_cost_network.node[8].content_store 	decision_yes[8] 	111108
scalar abilene_cost_network.node[8].content_store 	decision_no[8] 	0
scalar abilene_cost_network.node[8].content_store 	decision_ratio[8] 	1
scalar abilene_cost_network.node[9].core_layer 	interests[9] 	42682
scalar abilene_cost_network.node[9].core_layer 	data[9] 	37342
scalar abilene_cost_network.node[9].content_store 	p_hit[9] 	0.125134717211
scalar abilene_cost_network.node[9].content_store 	hits[9] 	5341
scalar abilene_cost_network.node[9].content_store 	misses[9] 	37341
scalar abilene_cost_network.node[9].content_store 	decision_yes[9] 	37342
scalar abilene_cost_network.node[9].content_store 	decision_no[9] 	0
scalar abilene_cost_network.node[9].content_store 	decision_ratio[9] 	1
scalar abilene_cost_network.node[10].core_layer 	interests[10] 	179732
scalar abilene_cost_network.node[10].core_layer 	data[10] 	128852
scalar abilene_cost_network.node[10].content_store 	p_hit[10] 	0.28193643869762
scalar abilene_cost_network.node[10].content_store 	hits[10] 	50673
scalar abilene_cost_network.node[10].content_store 	misses[10] 	129059
scalar abilene_cost_network.node[10].content_store 	decision_yes[10] 	128852
scalar abilene_cost_network.node[10].content_store 	decision_no[10] 	0
scalar abilene_cost_network.node[10].content_store 	decision_ratio[10] 	1
scalar abilene_cost_network.client[2] 	hdistance[2] 	1.6482593303665
scalar abilene_cost_network.client[2] 	downloads[2] 	180218
scalar abilene_cost_network.client[2] 	avg_time[2] 	0.005133048775
scalar abilene_cost_network.client[2] 	interests_sent[2] 	180384
scalar abilene_cost_network.client[4] 	hdistance[4] 	2.1340458558894
scalar abilene_cost_network.client[4] 	downloads[4] 	179737
scalar abilene_cost_network.client[4] 	avg_time[4] 	0.006720081132
scalar abilene_cost_network.client[4] 	interests_sent[4] 	179910
scalar abilene_cost_network.client[10] 	hdistance[10] 	2.6489959615652
scalar abilene_cost_network.client[10] 	downloads[10] 	179525
scalar abilene_cost_network.client[10] 	avg_time[10] 	0.014491084168
scalar abilene_cost_network.client[10] 	interests_sent[10] 	179732
