version 2
run General-3-20150721-11:47:07-18053
attr C 1e4
attr D lce
attr F spr
attr R always_highq
attr a 1
attr brates 0.3_0.7_1.5_2.5_3.5
attr configname General
attr ctlg 1e6
attr datetime 20150721-11:47:07
attr experiment General
attr inifile omnetpp.ini
attr iterationvars "$net=barabasi_100nodes, $rep=0, $lambda=100, $a=1, $ctlg=1e6, $brates=0.3_0.7_1.5_2.5_3.5, $F=spr, $ttl=1000, $D=lce, $R=always_highq, $C=1e4, $window=60, $variance=0.05, $mytime=18000"
attr iterationvars2 "$net=barabasi_100nodes, $rep=0, $lambda=100, $a=1, $ctlg=1e6, $brates=0.3_0.7_1.5_2.5_3.5, $F=spr, $ttl=1000, $D=lce, $R=always_highq, $C=1e4, $window=60, $variance=0.05, $mytime=18000, $repetition=0"
attr lambda 100
attr measurement "$net=barabasi_100nodes, $rep=0, $lambda=100, $a=1, $ctlg=1e6, $brates=0.3_0.7_1.5_2.5_3.5, $F=spr, $ttl=1000, $D=lce, $R=always_highq, $C=1e4, $window=60, $variance=0.05, $mytime=18000"
attr mytime 18000
attr net barabasi_100nodes
attr network networks.${net=barabasi_100nodes}_network
attr processid 18053
attr rep 0
attr repetition 0
attr replication #0
attr resultdir results
attr runnumber 3
attr seedset 0
attr ttl 1000
attr variance 0.05
attr window 60

scalar . 	C 	1e4
scalar . 	a 	1
scalar . 	ctlg 	1e6
scalar . 	lambda 	100
scalar . 	mytime 	18000
scalar . 	rep 	0
scalar . 	ttl 	1000
scalar . 	variance 	0.05
scalar . 	window 	60
scalar barabasi_100nodes_network.content_distribution 	repo-0 	37
scalar barabasi_100nodes_network.content_distribution 	repo-1 	12
scalar barabasi_100nodes_network.content_distribution 	repo-2 	72
scalar barabasi_100nodes_network.content_distribution 	repo-3 	9
scalar barabasi_100nodes_network.content_distribution 	repo-4 	75
scalar barabasi_100nodes_network.content_distribution 	repo-5 	5
scalar barabasi_100nodes_network.content_distribution 	repo-6 	79
scalar barabasi_100nodes_network.content_distribution 	repo-7 	64
scalar barabasi_100nodes_network.content_distribution 	repo-8 	16
scalar barabasi_100nodes_network.content_distribution 	repo-9 	1
scalar barabasi_100nodes_network.content_distribution 	repo-10 	76
scalar barabasi_100nodes_network.content_distribution 	repo-11 	71
scalar barabasi_100nodes_network.content_distribution 	repo-12 	6
scalar barabasi_100nodes_network.content_distribution 	repo-13 	25
scalar barabasi_100nodes_network.content_distribution 	repo-14 	50
scalar barabasi_100nodes_network.content_distribution 	repo-15 	20
scalar barabasi_100nodes_network.content_distribution 	repo-16 	18
scalar barabasi_100nodes_network.content_distribution 	repo-17 	84
scalar barabasi_100nodes_network.content_distribution 	repo-18 	11
scalar barabasi_100nodes_network.content_distribution 	repo-19 	28
scalar barabasi_100nodes_network.content_distribution 	repo-20 	29
scalar barabasi_100nodes_network.content_distribution 	repo-21 	14
scalar barabasi_100nodes_network.content_distribution 	repo-22 	68
scalar barabasi_100nodes_network.content_distribution 	repo-23 	87
scalar barabasi_100nodes_network.content_distribution 	repo-24 	94
scalar barabasi_100nodes_network.content_distribution 	repo-25 	96
scalar barabasi_100nodes_network.content_distribution 	repo-26 	86
scalar barabasi_100nodes_network.content_distribution 	repo-27 	13
scalar barabasi_100nodes_network.content_distribution 	repo-28 	7
scalar barabasi_100nodes_network.content_distribution 	repo-29 	63
scalar barabasi_100nodes_network.content_distribution 	repo-30 	61
scalar barabasi_100nodes_network.content_distribution 	repo-31 	22
scalar barabasi_100nodes_network.content_distribution 	repo-32 	57
scalar barabasi_100nodes_network.content_distribution 	repo-33 	0
scalar barabasi_100nodes_network.content_distribution 	repo-34 	60
scalar barabasi_100nodes_network.content_distribution 	repo-35 	81
scalar barabasi_100nodes_network.content_distribution 	repo-36 	8
scalar barabasi_100nodes_network.content_distribution 	repo-37 	88
scalar barabasi_100nodes_network.content_distribution 	repo-38 	47
scalar barabasi_100nodes_network.content_distribution 	repo-39 	30
scalar barabasi_100nodes_network.content_distribution 	repo-40 	3
scalar barabasi_100nodes_network.content_distribution 	repo-41 	70
scalar barabasi_100nodes_network.content_distribution 	repo-42 	21
scalar barabasi_100nodes_network.content_distribution 	repo-43 	49
scalar barabasi_100nodes_network.content_distribution 	repo-44 	24
scalar barabasi_100nodes_network.content_distribution 	repo-45 	43
scalar barabasi_100nodes_network.content_distribution 	repo-46 	26
scalar barabasi_100nodes_network.content_distribution 	repo-47 	52
scalar barabasi_100nodes_network.content_distribution 	repo-48 	80
scalar barabasi_100nodes_network.content_distribution 	repo-49 	41
scalar barabasi_100nodes_network.content_distribution 	repo-50 	82
scalar barabasi_100nodes_network.content_distribution 	repo-51 	15
scalar barabasi_100nodes_network.content_distribution 	repo-52 	98
scalar barabasi_100nodes_network.content_distribution 	repo-53 	67
scalar barabasi_100nodes_network.content_distribution 	repo-54 	23
scalar barabasi_100nodes_network.content_distribution 	repo-55 	27
scalar barabasi_100nodes_network.content_distribution 	repo-56 	83
scalar barabasi_100nodes_network.content_distribution 	repo-57 	38
scalar barabasi_100nodes_network.content_distribution 	repo-58 	32
scalar barabasi_100nodes_network.content_distribution 	repo-59 	34
scalar barabasi_100nodes_network.content_distribution 	repo-60 	10
scalar barabasi_100nodes_network.content_distribution 	repo-61 	92
scalar barabasi_100nodes_network.content_distribution 	repo-62 	74
scalar barabasi_100nodes_network.content_distribution 	repo-63 	62
scalar barabasi_100nodes_network.content_distribution 	repo-64 	46
scalar barabasi_100nodes_network.content_distribution 	repo-65 	55
scalar barabasi_100nodes_network.content_distribution 	repo-66 	65
scalar barabasi_100nodes_network.content_distribution 	repo-67 	77
scalar barabasi_100nodes_network.content_distribution 	repo-68 	85
scalar barabasi_100nodes_network.content_distribution 	repo-69 	2
scalar barabasi_100nodes_network.content_distribution 	repo-70 	91
scalar barabasi_100nodes_network.content_distribution 	repo-71 	36
scalar barabasi_100nodes_network.content_distribution 	repo-72 	45
scalar barabasi_100nodes_network.content_distribution 	repo-73 	97
scalar barabasi_100nodes_network.content_distribution 	repo-74 	54
scalar barabasi_100nodes_network.content_distribution 	repo-75 	66
scalar barabasi_100nodes_network.content_distribution 	repo-76 	48
scalar barabasi_100nodes_network.content_distribution 	repo-77 	17
scalar barabasi_100nodes_network.content_distribution 	repo-78 	42
scalar barabasi_100nodes_network.content_distribution 	repo-79 	53
scalar barabasi_100nodes_network.content_distribution 	repo-80 	56
scalar barabasi_100nodes_network.content_distribution 	repo-81 	89
scalar barabasi_100nodes_network.content_distribution 	repo-82 	59
scalar barabasi_100nodes_network.content_distribution 	repo-83 	69
scalar barabasi_100nodes_network.content_distribution 	repo-84 	40
scalar barabasi_100nodes_network.content_distribution 	repo-85 	78
scalar barabasi_100nodes_network.content_distribution 	repo-86 	35
scalar barabasi_100nodes_network.content_distribution 	repo-87 	93
scalar barabasi_100nodes_network.content_distribution 	repo-88 	33
scalar barabasi_100nodes_network.content_distribution 	repo-89 	31
scalar barabasi_100nodes_network.content_distribution 	repo-90 	99
scalar barabasi_100nodes_network.content_distribution 	repo-91 	44
scalar barabasi_100nodes_network.content_distribution 	repo-92 	19
scalar barabasi_100nodes_network.content_distribution 	repo-93 	39
scalar barabasi_100nodes_network.content_distribution 	repo-94 	51
scalar barabasi_100nodes_network.content_distribution 	repo-95 	58
scalar barabasi_100nodes_network.content_distribution 	repo-96 	73
scalar barabasi_100nodes_network.content_distribution 	repo-97 	95
scalar barabasi_100nodes_network.content_distribution 	repo-98 	4
scalar barabasi_100nodes_network.content_distribution 	repo-99 	90
scalar barabasi_100nodes_network.content_distribution 	client-0 	27
scalar barabasi_100nodes_network.content_distribution 	client-1 	60
scalar barabasi_100nodes_network.content_distribution 	client-2 	12
scalar barabasi_100nodes_network.content_distribution 	client-3 	17
scalar barabasi_100nodes_network.content_distribution 	client-4 	71
scalar barabasi_100nodes_network.content_distribution 	client-5 	91
scalar barabasi_100nodes_network.content_distribution 	client-6 	7
scalar barabasi_100nodes_network.content_distribution 	client-7 	83
scalar barabasi_100nodes_network.content_distribution 	client-8 	56
scalar barabasi_100nodes_network.content_distribution 	client-9 	51
scalar barabasi_100nodes_network.content_distribution 	client-10 	32
scalar barabasi_100nodes_network.content_distribution 	client-11 	76
scalar barabasi_100nodes_network.content_distribution 	client-12 	62
scalar barabasi_100nodes_network.content_distribution 	client-13 	96
scalar barabasi_100nodes_network.content_distribution 	client-14 	30
scalar barabasi_100nodes_network.content_distribution 	client-15 	22
scalar barabasi_100nodes_network.content_distribution 	client-16 	5
scalar barabasi_100nodes_network.content_distribution 	client-17 	95
scalar barabasi_100nodes_network.content_distribution 	client-18 	18
scalar barabasi_100nodes_network.content_distribution 	client-19 	93
scalar barabasi_100nodes_network.content_distribution 	client-20 	29
scalar barabasi_100nodes_network.content_distribution 	client-21 	52
scalar barabasi_100nodes_network.content_distribution 	client-22 	31
scalar barabasi_100nodes_network.content_distribution 	client-23 	49
scalar barabasi_100nodes_network.content_distribution 	client-24 	98
scalar barabasi_100nodes_network.content_distribution 	client-25 	45
scalar barabasi_100nodes_network.content_distribution 	client-26 	86
scalar barabasi_100nodes_network.content_distribution 	client-27 	15
scalar barabasi_100nodes_network.content_distribution 	client-28 	48
scalar barabasi_100nodes_network.content_distribution 	client-29 	28
scalar barabasi_100nodes_network.content_distribution 	client-30 	43
scalar barabasi_100nodes_network.content_distribution 	client-31 	19
scalar barabasi_100nodes_network.content_distribution 	client-32 	79
scalar barabasi_100nodes_network.content_distribution 	client-33 	70
scalar barabasi_100nodes_network.content_distribution 	client-34 	88
scalar barabasi_100nodes_network.content_distribution 	client-35 	11
scalar barabasi_100nodes_network.content_distribution 	client-36 	65
scalar barabasi_100nodes_network.content_distribution 	client-37 	63
scalar barabasi_100nodes_network.content_distribution 	client-38 	42
scalar barabasi_100nodes_network.content_distribution 	client-39 	82
scalar barabasi_100nodes_network.content_distribution 	client-40 	40
scalar barabasi_100nodes_network.content_distribution 	client-41 	44
scalar barabasi_100nodes_network.content_distribution 	client-42 	16
scalar barabasi_100nodes_network.content_distribution 	client-43 	0
scalar barabasi_100nodes_network.content_distribution 	client-44 	97
scalar barabasi_100nodes_network.content_distribution 	client-45 	14
scalar barabasi_100nodes_network.content_distribution 	client-46 	36
scalar barabasi_100nodes_network.content_distribution 	client-47 	26
scalar barabasi_100nodes_network.content_distribution 	client-48 	1
scalar barabasi_100nodes_network.content_distribution 	client-49 	34
scalar barabasi_100nodes_network.content_distribution 	client-50 	94
scalar barabasi_100nodes_network.content_distribution 	client-51 	21
scalar barabasi_100nodes_network.content_distribution 	client-52 	68
scalar barabasi_100nodes_network.content_distribution 	client-53 	67
scalar barabasi_100nodes_network.content_distribution 	client-54 	64
scalar barabasi_100nodes_network.content_distribution 	client-55 	89
scalar barabasi_100nodes_network.content_distribution 	client-56 	33
scalar barabasi_100nodes_network.content_distribution 	client-57 	58
scalar barabasi_100nodes_network.content_distribution 	client-58 	4
scalar barabasi_100nodes_network.content_distribution 	client-59 	61
scalar barabasi_100nodes_network.content_distribution 	client-60 	50
scalar barabasi_100nodes_network.content_distribution 	client-61 	92
scalar barabasi_100nodes_network.content_distribution 	client-62 	25
scalar barabasi_100nodes_network.content_distribution 	client-63 	13
scalar barabasi_100nodes_network.content_distribution 	client-64 	38
scalar barabasi_100nodes_network.content_distribution 	client-65 	85
scalar barabasi_100nodes_network.content_distribution 	client-66 	84
scalar barabasi_100nodes_network.content_distribution 	client-67 	75
scalar barabasi_100nodes_network.content_distribution 	client-68 	99
scalar barabasi_100nodes_network.content_distribution 	client-69 	66
scalar barabasi_100nodes_network.content_distribution 	client-70 	74
scalar barabasi_100nodes_network.content_distribution 	client-71 	37
scalar barabasi_100nodes_network.content_distribution 	client-72 	72
scalar barabasi_100nodes_network.content_distribution 	client-73 	24
scalar barabasi_100nodes_network.content_distribution 	client-74 	41
scalar barabasi_100nodes_network.content_distribution 	client-75 	46
scalar barabasi_100nodes_network.content_distribution 	client-76 	35
scalar barabasi_100nodes_network.content_distribution 	client-77 	57
scalar barabasi_100nodes_network.content_distribution 	client-78 	6
scalar barabasi_100nodes_network.content_distribution 	client-79 	3
scalar barabasi_100nodes_network.content_distribution 	client-80 	20
scalar barabasi_100nodes_network.content_distribution 	client-81 	9
scalar barabasi_100nodes_network.content_distribution 	client-82 	90
scalar barabasi_100nodes_network.content_distribution 	client-83 	69
scalar barabasi_100nodes_network.content_distribution 	client-84 	23
scalar barabasi_100nodes_network.content_distribution 	client-85 	39
scalar barabasi_100nodes_network.content_distribution 	client-86 	87
scalar barabasi_100nodes_network.content_distribution 	client-87 	10
scalar barabasi_100nodes_network.content_distribution 	client-88 	78
scalar barabasi_100nodes_network.content_distribution 	client-89 	59
scalar barabasi_100nodes_network.content_distribution 	client-90 	53
scalar barabasi_100nodes_network.content_distribution 	client-91 	77
scalar barabasi_100nodes_network.content_distribution 	client-92 	55
scalar barabasi_100nodes_network.content_distribution 	client-93 	80
scalar barabasi_100nodes_network.content_distribution 	client-94 	47
scalar barabasi_100nodes_network.content_distribution 	client-95 	81
scalar barabasi_100nodes_network.content_distribution 	client-96 	54
scalar barabasi_100nodes_network.content_distribution 	client-97 	8
scalar barabasi_100nodes_network.content_distribution 	client-98 	73
scalar barabasi_100nodes_network.content_distribution 	client-99 	2
scalar barabasi_100nodes_network.content_distribution 	repo-0_card 	250050
scalar barabasi_100nodes_network.content_distribution 	repo-0_price 	0
scalar barabasi_100nodes_network.content_distribution 	repo-1_card 	250103
scalar barabasi_100nodes_network.content_distribution 	repo-1_price 	0
scalar barabasi_100nodes_network.content_distribution 	repo-2_card 	249952
scalar barabasi_100nodes_network.content_distribution 	repo-2_price 	0
scalar barabasi_100nodes_network.content_distribution 	repo-3_card 	249895
scalar barabasi_100nodes_network.content_distribution 	repo-3_price 	0
scalar barabasi_100nodes_network.content_distribution 	repo-4_card 	0
scalar barabasi_100nodes_network.content_distribution 	repo-4_price 	0
scalar barabasi_100nodes_network.content_distribution 	repo-5_card 	0
scalar barabasi_100nodes_network.content_distribution 	repo-5_price 	0
scalar barabasi_100nodes_network.content_distribution 	repo-6_card 	0
scalar barabasi_100nodes_network.content_distribution 	repo-6_price 	0
scalar barabasi_100nodes_network.content_distribution 	repo-7_card 	0
scalar barabasi_100nodes_network.content_distribution 	repo-7_price 	0
scalar barabasi_100nodes_network.content_distribution 	repo-8_card 	0
scalar barabasi_100nodes_network.content_distribution 	repo-8_price 	0
scalar barabasi_100nodes_network.content_distribution 	repo-9_card 	0
scalar barabasi_100nodes_network.content_distribution 	repo-9_price 	0
scalar barabasi_100nodes_network.content_distribution 	repo-10_card 	0
scalar barabasi_100nodes_network.content_distribution 	repo-10_price 	0
scalar barabasi_100nodes_network.content_distribution 	repo-11_card 	0
scalar barabasi_100nodes_network.content_distribution 	repo-11_price 	0
scalar barabasi_100nodes_network.content_distribution 	repo-12_card 	0
scalar barabasi_100nodes_network.content_distribution 	repo-12_price 	0
scalar barabasi_100nodes_network.content_distribution 	repo-13_card 	0
scalar barabasi_100nodes_network.content_distribution 	repo-13_price 	0
scalar barabasi_100nodes_network.content_distribution 	repo-14_card 	0
scalar barabasi_100nodes_network.content_distribution 	repo-14_price 	0
scalar barabasi_100nodes_network.content_distribution 	repo-15_card 	0
scalar barabasi_100nodes_network.content_distribution 	repo-15_price 	0
scalar barabasi_100nodes_network.content_distribution 	repo-16_card 	0
scalar barabasi_100nodes_network.content_distribution 	repo-16_price 	0
scalar barabasi_100nodes_network.content_distribution 	repo-17_card 	0
scalar barabasi_100nodes_network.content_distribution 	repo-17_price 	0
scalar barabasi_100nodes_network.content_distribution 	repo-18_card 	0
scalar barabasi_100nodes_network.content_distribution 	repo-18_price 	0
scalar barabasi_100nodes_network.content_distribution 	repo-19_card 	0
scalar barabasi_100nodes_network.content_distribution 	repo-19_price 	0
scalar barabasi_100nodes_network.content_distribution 	repo-20_card 	0
scalar barabasi_100nodes_network.content_distribution 	repo-20_price 	0
scalar barabasi_100nodes_network.content_distribution 	repo-21_card 	0
scalar barabasi_100nodes_network.content_distribution 	repo-21_price 	0
scalar barabasi_100nodes_network.content_distribution 	repo-22_card 	0
scalar barabasi_100nodes_network.content_distribution 	repo-22_price 	0
scalar barabasi_100nodes_network.content_distribution 	repo-23_card 	0
scalar barabasi_100nodes_network.content_distribution 	repo-23_price 	0
scalar barabasi_100nodes_network.content_distribution 	repo-24_card 	0
scalar barabasi_100nodes_network.content_distribution 	repo-24_price 	0
scalar barabasi_100nodes_network.content_distribution 	repo-25_card 	0
scalar barabasi_100nodes_network.content_distribution 	repo-25_price 	0
scalar barabasi_100nodes_network.content_distribution 	repo-26_card 	0
scalar barabasi_100nodes_network.content_distribution 	repo-26_price 	0
scalar barabasi_100nodes_network.content_distribution 	repo-27_card 	0
scalar barabasi_100nodes_network.content_distribution 	repo-27_price 	0
scalar barabasi_100nodes_network.content_distribution 	repo-28_card 	0
scalar barabasi_100nodes_network.content_distribution 	repo-28_price 	0
scalar barabasi_100nodes_network.content_distribution 	repo-29_card 	0
scalar barabasi_100nodes_network.content_distribution 	repo-29_price 	0
scalar barabasi_100nodes_network.content_distribution 	repo-30_card 	0
scalar barabasi_100nodes_network.content_distribution 	repo-30_price 	0
scalar barabasi_100nodes_network.content_distribution 	repo-31_card 	0
scalar barabasi_100nodes_network.content_distribution 	repo-31_price 	0
scalar barabasi_100nodes_network.content_distribution 	repo-32_card 	0
scalar barabasi_100nodes_network.content_distribution 	repo-32_price 	0
scalar barabasi_100nodes_network.content_distribution 	repo-33_card 	0
scalar barabasi_100nodes_network.content_distribution 	repo-33_price 	0
scalar barabasi_100nodes_network.content_distribution 	repo-34_card 	0
scalar barabasi_100nodes_network.content_distribution 	repo-34_price 	0
scalar barabasi_100nodes_network.content_distribution 	repo-35_card 	0
scalar barabasi_100nodes_network.content_distribution 	repo-35_price 	0
scalar barabasi_100nodes_network.content_distribution 	repo-36_card 	0
scalar barabasi_100nodes_network.content_distribution 	repo-36_price 	0
scalar barabasi_100nodes_network.content_distribution 	repo-37_card 	0
scalar barabasi_100nodes_network.content_distribution 	repo-37_price 	0
scalar barabasi_100nodes_network.content_distribution 	repo-38_card 	0
scalar barabasi_100nodes_network.content_distribution 	repo-38_price 	0
scalar barabasi_100nodes_network.content_distribution 	repo-39_card 	0
scalar barabasi_100nodes_network.content_distribution 	repo-39_price 	0
scalar barabasi_100nodes_network.content_distribution 	repo-40_card 	0
scalar barabasi_100nodes_network.content_distribution 	repo-40_price 	0
scalar barabasi_100nodes_network.content_distribution 	repo-41_card 	0
scalar barabasi_100nodes_network.content_distribution 	repo-41_price 	0
scalar barabasi_100nodes_network.content_distribution 	repo-42_card 	0
scalar barabasi_100nodes_network.content_distribution 	repo-42_price 	0
scalar barabasi_100nodes_network.content_distribution 	repo-43_card 	0
scalar barabasi_100nodes_network.content_distribution 	repo-43_price 	0
scalar barabasi_100nodes_network.content_distribution 	repo-44_card 	0
scalar barabasi_100nodes_network.content_distribution 	repo-44_price 	0
scalar barabasi_100nodes_network.content_distribution 	repo-45_card 	0
scalar barabasi_100nodes_network.content_distribution 	repo-45_price 	0
scalar barabasi_100nodes_network.content_distribution 	repo-46_card 	0
scalar barabasi_100nodes_network.content_distribution 	repo-46_price 	0
scalar barabasi_100nodes_network.content_distribution 	repo-47_card 	0
scalar barabasi_100nodes_network.content_distribution 	repo-47_price 	0
scalar barabasi_100nodes_network.content_distribution 	repo-48_card 	0
scalar barabasi_100nodes_network.content_distribution 	repo-48_price 	0
scalar barabasi_100nodes_network.content_distribution 	repo-49_card 	0
scalar barabasi_100nodes_network.content_distribution 	repo-49_price 	0
scalar barabasi_100nodes_network.content_distribution 	repo-50_card 	0
scalar barabasi_100nodes_network.content_distribution 	repo-50_price 	0
scalar barabasi_100nodes_network.content_distribution 	repo-51_card 	0
scalar barabasi_100nodes_network.content_distribution 	repo-51_price 	0
scalar barabasi_100nodes_network.content_distribution 	repo-52_card 	0
scalar barabasi_100nodes_network.content_distribution 	repo-52_price 	0
scalar barabasi_100nodes_network.content_distribution 	repo-53_card 	0
scalar barabasi_100nodes_network.content_distribution 	repo-53_price 	0
scalar barabasi_100nodes_network.content_distribution 	repo-54_card 	0
scalar barabasi_100nodes_network.content_distribution 	repo-54_price 	0
scalar barabasi_100nodes_network.content_distribution 	repo-55_card 	0
scalar barabasi_100nodes_network.content_distribution 	repo-55_price 	0
scalar barabasi_100nodes_network.content_distribution 	repo-56_card 	0
scalar barabasi_100nodes_network.content_distribution 	repo-56_price 	0
scalar barabasi_100nodes_network.content_distribution 	repo-57_card 	0
scalar barabasi_100nodes_network.content_distribution 	repo-57_price 	0
scalar barabasi_100nodes_network.content_distribution 	repo-58_card 	0
scalar barabasi_100nodes_network.content_distribution 	repo-58_price 	0
scalar barabasi_100nodes_network.content_distribution 	repo-59_card 	0
scalar barabasi_100nodes_network.content_distribution 	repo-59_price 	0
scalar barabasi_100nodes_network.content_distribution 	repo-60_card 	0
scalar barabasi_100nodes_network.content_distribution 	repo-60_price 	0
scalar barabasi_100nodes_network.content_distribution 	repo-61_card 	0
scalar barabasi_100nodes_network.content_distribution 	repo-61_price 	0
scalar barabasi_100nodes_network.content_distribution 	repo-62_card 	0
scalar barabasi_100nodes_network.content_distribution 	repo-62_price 	0
scalar barabasi_100nodes_network.content_distribution 	repo-63_card 	0
scalar barabasi_100nodes_network.content_distribution 	repo-63_price 	0
scalar barabasi_100nodes_network.content_distribution 	repo-64_card 	0
scalar barabasi_100nodes_network.content_distribution 	repo-64_price 	0
scalar barabasi_100nodes_network.content_distribution 	repo-65_card 	0
scalar barabasi_100nodes_network.content_distribution 	repo-65_price 	0
scalar barabasi_100nodes_network.content_distribution 	repo-66_card 	0
scalar barabasi_100nodes_network.content_distribution 	repo-66_price 	0
scalar barabasi_100nodes_network.content_distribution 	repo-67_card 	0
scalar barabasi_100nodes_network.content_distribution 	repo-67_price 	0
scalar barabasi_100nodes_network.content_distribution 	repo-68_card 	0
scalar barabasi_100nodes_network.content_distribution 	repo-68_price 	0
scalar barabasi_100nodes_network.content_distribution 	repo-69_card 	0
scalar barabasi_100nodes_network.content_distribution 	repo-69_price 	0
scalar barabasi_100nodes_network.content_distribution 	repo-70_card 	0
scalar barabasi_100nodes_network.content_distribution 	repo-70_price 	0
scalar barabasi_100nodes_network.content_distribution 	repo-71_card 	0
scalar barabasi_100nodes_network.content_distribution 	repo-71_price 	0
scalar barabasi_100nodes_network.content_distribution 	repo-72_card 	0
scalar barabasi_100nodes_network.content_distribution 	repo-72_price 	0
scalar barabasi_100nodes_network.content_distribution 	repo-73_card 	0
scalar barabasi_100nodes_network.content_distribution 	repo-73_price 	0
scalar barabasi_100nodes_network.content_distribution 	repo-74_card 	0
scalar barabasi_100nodes_network.content_distribution 	repo-74_price 	0
scalar barabasi_100nodes_network.content_distribution 	repo-75_card 	0
scalar barabasi_100nodes_network.content_distribution 	repo-75_price 	0
scalar barabasi_100nodes_network.content_distribution 	repo-76_card 	0
scalar barabasi_100nodes_network.content_distribution 	repo-76_price 	0
scalar barabasi_100nodes_network.content_distribution 	repo-77_card 	0
scalar barabasi_100nodes_network.content_distribution 	repo-77_price 	0
scalar barabasi_100nodes_network.content_distribution 	repo-78_card 	0
scalar barabasi_100nodes_network.content_distribution 	repo-78_price 	0
scalar barabasi_100nodes_network.content_distribution 	repo-79_card 	0
scalar barabasi_100nodes_network.content_distribution 	repo-79_price 	0
scalar barabasi_100nodes_network.content_distribution 	repo-80_card 	0
scalar barabasi_100nodes_network.content_distribution 	repo-80_price 	0
scalar barabasi_100nodes_network.content_distribution 	repo-81_card 	0
scalar barabasi_100nodes_network.content_distribution 	repo-81_price 	0
scalar barabasi_100nodes_network.content_distribution 	repo-82_card 	0
scalar barabasi_100nodes_network.content_distribution 	repo-82_price 	0
scalar barabasi_100nodes_network.content_distribution 	repo-83_card 	0
scalar barabasi_100nodes_network.content_distribution 	repo-83_price 	0
scalar barabasi_100nodes_network.content_distribution 	repo-84_card 	0
scalar barabasi_100nodes_network.content_distribution 	repo-84_price 	0
scalar barabasi_100nodes_network.content_distribution 	repo-85_card 	0
scalar barabasi_100nodes_network.content_distribution 	repo-85_price 	0
scalar barabasi_100nodes_network.content_distribution 	repo-86_card 	0
scalar barabasi_100nodes_network.content_distribution 	repo-86_price 	0
scalar barabasi_100nodes_network.content_distribution 	repo-87_card 	0
scalar barabasi_100nodes_network.content_distribution 	repo-87_price 	0
scalar barabasi_100nodes_network.content_distribution 	repo-88_card 	0
scalar barabasi_100nodes_network.content_distribution 	repo-88_price 	0
scalar barabasi_100nodes_network.content_distribution 	repo-89_card 	0
scalar barabasi_100nodes_network.content_distribution 	repo-89_price 	0
scalar barabasi_100nodes_network.content_distribution 	repo-90_card 	0
scalar barabasi_100nodes_network.content_distribution 	repo-90_price 	0
scalar barabasi_100nodes_network.content_distribution 	repo-91_card 	0
scalar barabasi_100nodes_network.content_distribution 	repo-91_price 	0
scalar barabasi_100nodes_network.content_distribution 	repo-92_card 	0
scalar barabasi_100nodes_network.content_distribution 	repo-92_price 	0
scalar barabasi_100nodes_network.content_distribution 	repo-93_card 	0
scalar barabasi_100nodes_network.content_distribution 	repo-93_price 	0
scalar barabasi_100nodes_network.content_distribution 	repo-94_card 	0
scalar barabasi_100nodes_network.content_distribution 	repo-94_price 	0
scalar barabasi_100nodes_network.content_distribution 	repo-95_card 	0
scalar barabasi_100nodes_network.content_distribution 	repo-95_price 	0
scalar barabasi_100nodes_network.content_distribution 	repo-96_card 	0
scalar barabasi_100nodes_network.content_distribution 	repo-96_price 	0
scalar barabasi_100nodes_network.content_distribution 	repo-97_card 	0
scalar barabasi_100nodes_network.content_distribution 	repo-97_price 	0
scalar barabasi_100nodes_network.content_distribution 	repo-98_card 	0
scalar barabasi_100nodes_network.content_distribution 	repo-98_price 	0
scalar barabasi_100nodes_network.content_distribution 	repo-99_card 	0
scalar barabasi_100nodes_network.content_distribution 	repo-99_price 	0
scalar barabasi_100nodes_network.statistics 	stabilization_time 	352.8
scalar barabasi_100nodes_network.statistics 	p_hit 	0.1206723385843
scalar barabasi_100nodes_network.statistics 	interests 	9375204.32
scalar barabasi_100nodes_network.statistics 	data 	4734573.77
scalar barabasi_100nodes_network.statistics 	hdistance 	1.7952126502958
scalar barabasi_100nodes_network.statistics 	avg_time 	0
scalar barabasi_100nodes_network.statistics 	downloads 	180007197
scalar barabasi_100nodes_network.statistics 	total_cost 	0
scalar barabasi_100nodes_network.statistics 	total_replicas 	1000000
scalar barabasi_100nodes_network.statistics 	"representations_downloaded 0.37151:0:0:0:0.62849:" 	0
scalar barabasi_100nodes_network.statistics 	"slots_per_representation 100:233:500:833:1167:" 	0
scalar barabasi_100nodes_network.statistics 	inner_hit 	23.785453378289
scalar barabasi_100nodes_network.statistics 	execution_time 	8903
scalar barabasi_100nodes_network.node[0].core_layer 	interests[0] 	117805522
scalar barabasi_100nodes_network.node[0].core_layer 	repo_load[0] 	15012520
scalar barabasi_100nodes_network.node[0].core_layer 	data[0] 	67142944
scalar barabasi_100nodes_network.node[0].core_layer 	slots_sent[face$o[1]->client[0]] 	1028756147
scalar barabasi_100nodes_network.node[0].core_layer 	slots_sent[face$o[2]->node[1]] 	1012215840
scalar barabasi_100nodes_network.node[0].core_layer 	slots_sent[face$o[3]->node[2]] 	31197774871
scalar barabasi_100nodes_network.node[0].core_layer 	slots_sent[face$o[4]->node[5]] 	3188889791
scalar barabasi_100nodes_network.node[0].core_layer 	slots_sent[face$o[5]->node[10]] 	1954576535
scalar barabasi_100nodes_network.node[0].core_layer 	slots_sent[face$o[6]->node[11]] 	1009255755
scalar barabasi_100nodes_network.node[0].core_layer 	slots_sent[face$o[7]->node[15]] 	2871966206
scalar barabasi_100nodes_network.node[0].core_layer 	slots_sent[face$o[8]->node[21]] 	2617283534
scalar barabasi_100nodes_network.node[0].core_layer 	slots_sent[face$o[9]->node[22]] 	1011567968
scalar barabasi_100nodes_network.node[0].core_layer 	slots_sent[face$o[10]->node[28]] 	1011448030
scalar barabasi_100nodes_network.node[0].core_layer 	slots_sent[face$o[11]->node[37]] 	721044321
scalar barabasi_100nodes_network.node[0].core_layer 	slots_sent[face$o[12]->node[44]] 	1011899178
scalar barabasi_100nodes_network.node[0].core_layer 	slots_sent[face$o[13]->node[58]] 	1955857062
scalar barabasi_100nodes_network.node[0].core_layer 	slots_sent[face$o[14]->node[73]] 	1411302059
scalar barabasi_100nodes_network.node[0].core_layer 	slots_sent[face$o[15]->node[74]] 	1012129061
scalar barabasi_100nodes_network.node[0].core_layer 	slots_sent[face$o[16]->node[93]] 	1010763478
scalar barabasi_100nodes_network.node[0].content_store 	p_hit[0] 	0.034136871784329
scalar barabasi_100nodes_network.node[0].content_store 	hits[0] 	4021512
scalar barabasi_100nodes_network.node[0].content_store 	misses[0] 	113784010
scalar barabasi_100nodes_network.node[0].content_store 	decision_yes[0] 	34933691
scalar barabasi_100nodes_network.node[0].content_store 	decision_no[0] 	47221773
scalar barabasi_100nodes_network.node[0].content_store 	decision_ratio[0] 	0.42521445682542
scalar barabasi_100nodes_network.node[0].proactive_component 	hdistance[0].proactive_component 	2.41639702605
scalar barabasi_100nodes_network.node[0].proactive_component 	downloads[0].proactive_component 	38100714
scalar barabasi_100nodes_network.node[0].proactive_component 	avg_time[0].proactive_component 	0
scalar barabasi_100nodes_network.node[1].core_layer 	interests[1] 	2467472
scalar barabasi_100nodes_network.node[1].core_layer 	data[1] 	1477111
scalar barabasi_100nodes_network.node[1].core_layer 	slots_sent[face$o[1]->client[1]] 	1389705330
scalar barabasi_100nodes_network.node[1].core_layer 	slots_sent[face$o[2]->node[0]] 	0
scalar barabasi_100nodes_network.node[1].content_store 	p_hit[1] 	0.40136666191146
scalar barabasi_100nodes_network.node[1].content_store 	hits[1] 	990361
scalar barabasi_100nodes_network.node[1].content_store 	misses[1] 	1477111
scalar barabasi_100nodes_network.node[1].content_store 	decision_yes[1] 	810220
scalar barabasi_100nodes_network.node[1].content_store 	decision_no[1] 	666891
scalar barabasi_100nodes_network.node[1].content_store 	decision_ratio[1] 	0.54851666530139
scalar barabasi_100nodes_network.node[1].proactive_component 	hdistance[1].proactive_component 	3.3671102985698
scalar barabasi_100nodes_network.node[1].proactive_component 	downloads[1].proactive_component 	680444
scalar barabasi_100nodes_network.node[1].proactive_component 	avg_time[1].proactive_component 	0
scalar barabasi_100nodes_network.node[2].core_layer 	interests[2] 	144467604
scalar barabasi_100nodes_network.node[2].core_layer 	data[2] 	95035333
scalar barabasi_100nodes_network.node[2].core_layer 	slots_sent[face$o[1]->client[2]] 	1305161541
scalar barabasi_100nodes_network.node[2].core_layer 	slots_sent[face$o[2]->node[0]] 	5900422301
scalar barabasi_100nodes_network.node[2].core_layer 	slots_sent[face$o[3]->node[3]] 	1945627315
scalar barabasi_100nodes_network.node[2].core_layer 	slots_sent[face$o[4]->node[4]] 	4012598824
scalar barabasi_100nodes_network.node[2].core_layer 	slots_sent[face$o[5]->node[6]] 	1005683459
scalar barabasi_100nodes_network.node[2].core_layer 	slots_sent[face$o[6]->node[7]] 	10862342591
scalar barabasi_100nodes_network.node[2].core_layer 	slots_sent[face$o[7]->node[8]] 	5718829018
scalar barabasi_100nodes_network.node[2].core_layer 	slots_sent[face$o[8]->node[13]] 	4404537009
scalar barabasi_100nodes_network.node[2].core_layer 	slots_sent[face$o[9]->node[16]] 	6431809318
scalar barabasi_100nodes_network.node[2].core_layer 	slots_sent[face$o[10]->node[18]] 	3195332796
scalar barabasi_100nodes_network.node[2].core_layer 	slots_sent[face$o[11]->node[25]] 	1946824523
scalar barabasi_100nodes_network.node[2].core_layer 	slots_sent[face$o[12]->node[26]] 	3263573461
scalar barabasi_100nodes_network.node[2].core_layer 	slots_sent[face$o[13]->node[29]] 	1004015385
scalar barabasi_100nodes_network.node[2].core_layer 	slots_sent[face$o[14]->node[32]] 	2861586062
scalar barabasi_100nodes_network.node[2].core_layer 	slots_sent[face$o[15]->node[33]] 	1006906143
scalar barabasi_100nodes_network.node[2].core_layer 	slots_sent[face$o[16]->node[34]] 	1005953207
scalar barabasi_100nodes_network.node[2].core_layer 	slots_sent[face$o[17]->node[36]] 	1946278985
scalar barabasi_100nodes_network.node[2].core_layer 	slots_sent[face$o[18]->node[41]] 	6206013962
scalar barabasi_100nodes_network.node[2].core_layer 	slots_sent[face$o[19]->node[45]] 	1007597197
scalar barabasi_100nodes_network.node[2].core_layer 	slots_sent[face$o[20]->node[59]] 	1007522567
scalar barabasi_100nodes_network.node[2].core_layer 	slots_sent[face$o[21]->node[62]] 	2871037059
scalar barabasi_100nodes_network.node[2].core_layer 	slots_sent[face$o[22]->node[79]] 	1008187423
scalar barabasi_100nodes_network.node[2].content_store 	p_hit[2] 	0.041600357682958
scalar barabasi_100nodes_network.node[2].content_store 	hits[2] 	6009904
scalar barabasi_100nodes_network.node[2].content_store 	misses[2] 	138457700
scalar barabasi_100nodes_network.node[2].content_store 	decision_yes[2] 	50865300
scalar barabasi_100nodes_network.node[2].content_store 	decision_no[2] 	44170033
scalar barabasi_100nodes_network.node[2].content_store 	decision_ratio[2] 	0.53522514620957
scalar barabasi_100nodes_network.node[2].proactive_component 	hdistance[2].proactive_component 	3.2312001319647
scalar barabasi_100nodes_network.node[2].proactive_component 	downloads[2].proactive_component 	45048521
scalar barabasi_100nodes_network.node[2].proactive_component 	avg_time[2].proactive_component 	0
scalar barabasi_100nodes_network.node[3].core_layer 	interests[3] 	4404643
scalar barabasi_100nodes_network.node[3].core_layer 	data[3] 	2775382
scalar barabasi_100nodes_network.node[3].core_layer 	slots_sent[face$o[1]->client[3]] 	1429997947
scalar barabasi_100nodes_network.node[3].core_layer 	slots_sent[face$o[2]->node[2]] 	0
scalar barabasi_100nodes_network.node[3].core_layer 	slots_sent[face$o[3]->node[52]] 	1002529776
scalar barabasi_100nodes_network.node[3].content_store 	p_hit[3] 	0.23705735061843
scalar barabasi_100nodes_network.node[3].content_store 	hits[3] 	1044153
scalar barabasi_100nodes_network.node[3].content_store 	misses[3] 	3360490
scalar barabasi_100nodes_network.node[3].content_store 	decision_yes[3] 	1563345
scalar barabasi_100nodes_network.node[3].content_store 	decision_no[3] 	1212037
scalar barabasi_100nodes_network.node[3].content_store 	decision_ratio[3] 	0.56329002638195
scalar barabasi_100nodes_network.node[3].proactive_component 	hdistance[3].proactive_component 	4.2396314631685
scalar barabasi_100nodes_network.node[3].proactive_component 	downloads[3].proactive_component 	1236023
scalar barabasi_100nodes_network.node[3].proactive_component 	avg_time[3].proactive_component 	0
scalar barabasi_100nodes_network.node[4].core_layer 	interests[4] 	13002337
scalar barabasi_100nodes_network.node[4].core_layer 	repo_load[4] 	3980129
scalar barabasi_100nodes_network.node[4].core_layer 	data[4] 	5838242
scalar barabasi_100nodes_network.node[4].core_layer 	slots_sent[face$o[1]->client[4]] 	1059413291
scalar barabasi_100nodes_network.node[4].core_layer 	slots_sent[face$o[2]->node[2]] 	0
scalar barabasi_100nodes_network.node[4].core_layer 	slots_sent[face$o[3]->node[27]] 	1950390284
scalar barabasi_100nodes_network.node[4].core_layer 	slots_sent[face$o[4]->node[30]] 	1953192308
scalar barabasi_100nodes_network.node[4].core_layer 	slots_sent[face$o[5]->node[85]] 	1007927010
scalar barabasi_100nodes_network.node[4].content_store 	p_hit[4] 	0.079322817121261
scalar barabasi_100nodes_network.node[4].content_store 	hits[4] 	1031382
scalar barabasi_100nodes_network.node[4].content_store 	misses[4] 	11970955
scalar barabasi_100nodes_network.node[4].content_store 	decision_yes[4] 	3213472
scalar barabasi_100nodes_network.node[4].content_store 	decision_no[4] 	6604899
scalar barabasi_100nodes_network.node[4].content_store 	decision_ratio[4] 	0.32729176764659
scalar barabasi_100nodes_network.node[4].proactive_component 	hdistance[4].proactive_component 	3.1138603776729
scalar barabasi_100nodes_network.node[4].proactive_component 	downloads[4].proactive_component 	4202050
scalar barabasi_100nodes_network.node[4].proactive_component 	avg_time[4].proactive_component 	0
scalar barabasi_100nodes_network.node[5].core_layer 	interests[5] 	49974020
scalar barabasi_100nodes_network.node[5].core_layer 	data[5] 	32309124
scalar barabasi_100nodes_network.node[5].core_layer 	slots_sent[face$o[1]->client[5]] 	1187994138
scalar barabasi_100nodes_network.node[5].core_layer 	slots_sent[face$o[2]->node[0]] 	18825963741
scalar barabasi_100nodes_network.node[5].core_layer 	slots_sent[face$o[3]->node[9]] 	719147694
scalar barabasi_100nodes_network.node[5].core_layer 	slots_sent[face$o[4]->node[35]] 	1957106245
scalar barabasi_100nodes_network.node[5].content_store 	p_hit[5] 	0.051452574757844
scalar barabasi_100nodes_network.node[5].content_store 	hits[5] 	2571292
scalar barabasi_100nodes_network.node[5].content_store 	misses[5] 	47402728
scalar barabasi_100nodes_network.node[5].content_store 	decision_yes[5] 	16360391
scalar barabasi_100nodes_network.node[5].content_store 	decision_no[5] 	15948733
scalar barabasi_100nodes_network.node[5].content_store 	decision_ratio[5] 	0.50637061530978
scalar barabasi_100nodes_network.node[5].proactive_component 	hdistance[5].proactive_component 	2.1570735614987
scalar barabasi_100nodes_network.node[5].proactive_component 	downloads[5].proactive_component 	16265710
scalar barabasi_100nodes_network.node[5].proactive_component 	avg_time[5].proactive_component 	0
scalar barabasi_100nodes_network.node[6].core_layer 	interests[6] 	2415036
scalar barabasi_100nodes_network.node[6].core_layer 	data[6] 	1426117
scalar barabasi_100nodes_network.node[6].core_layer 	slots_sent[face$o[1]->client[6]] 	1439432852
scalar barabasi_100nodes_network.node[6].core_layer 	slots_sent[face$o[2]->node[2]] 	0
scalar barabasi_100nodes_network.node[6].content_store 	p_hit[6] 	0.40948416503936
scalar barabasi_100nodes_network.node[6].content_store 	hits[6] 	988919
scalar barabasi_100nodes_network.node[6].content_store 	misses[6] 	1426117
scalar barabasi_100nodes_network.node[6].content_store 	decision_yes[6] 	808877
scalar barabasi_100nodes_network.node[6].content_store 	decision_no[6] 	617240
scalar barabasi_100nodes_network.node[6].content_store 	decision_ratio[6] 	0.56718838636662
scalar barabasi_100nodes_network.node[6].proactive_component 	hdistance[6].proactive_component 	4.2393541315881
scalar barabasi_100nodes_network.node[6].proactive_component 	downloads[6].proactive_component 	629540
scalar barabasi_100nodes_network.node[6].proactive_component 	avg_time[6].proactive_component 	0
scalar barabasi_100nodes_network.node[7].core_layer 	interests[7] 	23730466
scalar barabasi_100nodes_network.node[7].core_layer 	data[7] 	15792580
scalar barabasi_100nodes_network.node[7].core_layer 	slots_sent[face$o[1]->client[7]] 	1395186565
scalar barabasi_100nodes_network.node[7].core_layer 	slots_sent[face$o[2]->node[2]] 	0
scalar barabasi_100nodes_network.node[7].core_layer 	slots_sent[face$o[3]->node[23]] 	5957188261
scalar barabasi_100nodes_network.node[7].core_layer 	slots_sent[face$o[4]->node[31]] 	2780876724
scalar barabasi_100nodes_network.node[7].core_layer 	slots_sent[face$o[5]->node[49]] 	1002482692
scalar barabasi_100nodes_network.node[7].core_layer 	slots_sent[face$o[6]->node[90]] 	713282342
scalar barabasi_100nodes_network.node[7].content_store 	p_hit[7] 	0.06353044225933
scalar barabasi_100nodes_network.node[7].content_store 	hits[7] 	1507607
scalar barabasi_100nodes_network.node[7].content_store 	misses[7] 	22222859
scalar barabasi_100nodes_network.node[7].content_store 	decision_yes[7] 	8700173
scalar barabasi_100nodes_network.node[7].content_store 	decision_no[7] 	7092407
scalar barabasi_100nodes_network.node[7].content_store 	decision_ratio[7] 	0.55090257576659
scalar barabasi_100nodes_network.node[7].proactive_component 	hdistance[7].proactive_component 	4.2533899159224
scalar barabasi_100nodes_network.node[7].proactive_component 	downloads[7].proactive_component 	7232849
scalar barabasi_100nodes_network.node[7].proactive_component 	avg_time[7].proactive_component 	0
scalar barabasi_100nodes_network.node[8].core_layer 	interests[8] 	46278745
scalar barabasi_100nodes_network.node[8].core_layer 	data[8] 	29843754
scalar barabasi_100nodes_network.node[8].core_layer 	slots_sent[face$o[1]->client[8]] 	1326389792
scalar barabasi_100nodes_network.node[8].core_layer 	slots_sent[face$o[2]->node[2]] 	14092180385
scalar barabasi_100nodes_network.node[8].core_layer 	slots_sent[face$o[3]->node[12]] 	716432522
scalar barabasi_100nodes_network.node[8].core_layer 	slots_sent[face$o[4]->node[14]] 	1007060688
scalar barabasi_100nodes_network.node[8].core_layer 	slots_sent[face$o[5]->node[17]] 	1006656810
scalar barabasi_100nodes_network.node[8].core_layer 	slots_sent[face$o[6]->node[39]] 	1686526731
scalar barabasi_100nodes_network.node[8].core_layer 	slots_sent[face$o[7]->node[61]] 	1007470130
scalar barabasi_100nodes_network.node[8].core_layer 	slots_sent[face$o[8]->node[66]] 	1006255589
scalar barabasi_100nodes_network.node[8].content_store 	p_hit[8] 	0.059767588771044
scalar barabasi_100nodes_network.node[8].content_store 	hits[8] 	2765969
scalar barabasi_100nodes_network.node[8].content_store 	misses[8] 	43512776
scalar barabasi_100nodes_network.node[8].content_store 	decision_yes[8] 	15448802
scalar barabasi_100nodes_network.node[8].content_store 	decision_no[8] 	14394952
scalar barabasi_100nodes_network.node[8].content_store 	decision_ratio[8] 	0.51765612328798
scalar barabasi_100nodes_network.node[8].proactive_component 	hdistance[8].proactive_component 	2.5738748396553
scalar barabasi_100nodes_network.node[8].proactive_component 	downloads[8].proactive_component 	14681663
scalar barabasi_100nodes_network.node[8].proactive_component 	avg_time[8].proactive_component 	0
scalar barabasi_100nodes_network.node[9].core_layer 	interests[9] 	44184985
scalar barabasi_100nodes_network.node[9].core_layer 	repo_load[9] 	42359208
scalar barabasi_100nodes_network.node[9].core_layer 	data[9] 	1063888
scalar barabasi_100nodes_network.node[9].core_layer 	slots_sent[face$o[1]->client[9]] 	1083209655
scalar barabasi_100nodes_network.node[9].core_layer 	slots_sent[face$o[2]->node[5]] 	17498559806
scalar barabasi_100nodes_network.node[9].content_store 	p_hit[9] 	0.017243165296989
scalar barabasi_100nodes_network.node[9].content_store 	hits[9] 	761889
scalar barabasi_100nodes_network.node[9].content_store 	misses[9] 	43423096
scalar barabasi_100nodes_network.node[9].content_store 	decision_yes[9] 	574282
scalar barabasi_100nodes_network.node[9].content_store 	decision_no[9] 	42848814
scalar barabasi_100nodes_network.node[9].content_store 	decision_ratio[9] 	0.013225266111841
scalar barabasi_100nodes_network.node[9].proactive_component 	hdistance[9].proactive_component 	1.1065796699026
scalar barabasi_100nodes_network.node[9].proactive_component 	downloads[9].proactive_component 	15056652
scalar barabasi_100nodes_network.node[9].proactive_component 	avg_time[9].proactive_component 	0
scalar barabasi_100nodes_network.node[10].core_layer 	interests[10] 	4529995
scalar barabasi_100nodes_network.node[10].core_layer 	data[10] 	2864234
scalar barabasi_100nodes_network.node[10].core_layer 	slots_sent[face$o[1]->client[10]] 	1373694594
scalar barabasi_100nodes_network.node[10].core_layer 	slots_sent[face$o[2]->node[0]] 	0
scalar barabasi_100nodes_network.node[10].core_layer 	slots_sent[face$o[3]->node[71]] 	1006757585
scalar barabasi_100nodes_network.node[10].content_store 	p_hit[10] 	0.23083734088007
scalar barabasi_100nodes_network.node[10].content_store 	hits[10] 	1045692
scalar barabasi_100nodes_network.node[10].content_store 	misses[10] 	3484303
scalar barabasi_100nodes_network.node[10].content_store 	decision_yes[10] 	1563405
scalar barabasi_100nodes_network.node[10].content_store 	decision_no[10] 	1300829
scalar barabasi_100nodes_network.node[10].content_store 	decision_ratio[10] 	0.54583703705773
scalar barabasi_100nodes_network.node[10].proactive_component 	hdistance[10].proactive_component 	3.3755625308121
scalar barabasi_100nodes_network.node[10].proactive_component 	downloads[10].proactive_component 	1326594
scalar barabasi_100nodes_network.node[10].proactive_component 	avg_time[10].proactive_component 	0
scalar barabasi_100nodes_network.node[11].core_layer 	interests[11] 	2463630
scalar barabasi_100nodes_network.node[11].core_layer 	data[11] 	1472638
scalar barabasi_100nodes_network.node[11].core_layer 	slots_sent[face$o[1]->client[11]] 	1389953328
scalar barabasi_100nodes_network.node[11].core_layer 	slots_sent[face$o[2]->node[0]] 	0
scalar barabasi_100nodes_network.node[11].content_store 	p_hit[11] 	0.40224871429557
scalar barabasi_100nodes_network.node[11].content_store 	hits[11] 	990992
scalar barabasi_100nodes_network.node[11].content_store 	misses[11] 	1472638
scalar barabasi_100nodes_network.node[11].content_store 	decision_yes[11] 	807865
scalar barabasi_100nodes_network.node[11].content_store 	decision_no[11] 	664773
scalar barabasi_100nodes_network.node[11].content_store 	decision_ratio[11] 	0.54858356228754
scalar barabasi_100nodes_network.node[11].proactive_component 	hdistance[11].proactive_component 	3.3654531971699
scalar barabasi_100nodes_network.node[11].proactive_component 	downloads[11].proactive_component 	678303
scalar barabasi_100nodes_network.node[11].proactive_component 	avg_time[11].proactive_component 	0
scalar barabasi_100nodes_network.node[12].core_layer 	interests[12] 	35222837
scalar barabasi_100nodes_network.node[12].core_layer 	repo_load[12] 	33407588
scalar barabasi_100nodes_network.node[12].core_layer 	data[12] 	1018768
scalar barabasi_100nodes_network.node[12].core_layer 	slots_sent[face$o[1]->client[12]] 	1171763115
scalar barabasi_100nodes_network.node[12].core_layer 	slots_sent[face$o[2]->node[8]] 	13749418116
scalar barabasi_100nodes_network.node[12].content_store 	p_hit[12] 	0.02261263054989
scalar barabasi_100nodes_network.node[12].content_store 	hits[12] 	796481
scalar barabasi_100nodes_network.node[12].content_store 	misses[12] 	34426356
scalar barabasi_100nodes_network.node[12].content_store 	decision_yes[12] 	575966
scalar barabasi_100nodes_network.node[12].content_store 	decision_no[12] 	33850390
scalar barabasi_100nodes_network.node[12].content_store 	decision_ratio[12] 	0.016730379480187
scalar barabasi_100nodes_network.node[12].proactive_component 	hdistance[12].proactive_component 	1.1633121568766
scalar barabasi_100nodes_network.node[12].proactive_component 	downloads[12].proactive_component 	11954156
scalar barabasi_100nodes_network.node[12].proactive_component 	avg_time[12].proactive_component 	0
scalar barabasi_100nodes_network.node[13].core_layer 	interests[13] 	9676885
scalar barabasi_100nodes_network.node[13].core_layer 	data[13] 	6339436
scalar barabasi_100nodes_network.node[13].core_layer 	slots_sent[face$o[1]->client[13]] 	1418641122
scalar barabasi_100nodes_network.node[13].core_layer 	slots_sent[face$o[2]->node[2]] 	0
scalar barabasi_100nodes_network.node[13].core_layer 	slots_sent[face$o[3]->node[67]] 	1000392564
scalar barabasi_100nodes_network.node[13].core_layer 	slots_sent[face$o[4]->node[78]] 	2606160603
scalar barabasi_100nodes_network.node[13].content_store 	p_hit[13] 	0.12100433145584
scalar barabasi_100nodes_network.node[13].content_store 	hits[13] 	1170945
scalar barabasi_100nodes_network.node[13].content_store 	misses[13] 	8505940
scalar barabasi_100nodes_network.node[13].content_store 	decision_yes[13] 	3533827
scalar barabasi_100nodes_network.node[13].content_store 	decision_no[13] 	2805609
scalar barabasi_100nodes_network.node[13].content_store 	decision_ratio[13] 	0.55743555104902
scalar barabasi_100nodes_network.node[13].proactive_component 	hdistance[13].proactive_component 	4.2060868474465
scalar barabasi_100nodes_network.node[13].proactive_component 	downloads[13].proactive_component 	2862007
scalar barabasi_100nodes_network.node[13].proactive_component 	avg_time[13].proactive_component 	0
scalar barabasi_100nodes_network.node[14].core_layer 	interests[14] 	2414027
scalar barabasi_100nodes_network.node[14].core_layer 	data[14] 	1422956
scalar barabasi_100nodes_network.node[14].core_layer 	slots_sent[face$o[1]->client[14]] 	1448862381
scalar barabasi_100nodes_network.node[14].core_layer 	slots_sent[face$o[2]->node[8]] 	0
scalar barabasi_100nodes_network.node[14].content_store 	p_hit[14] 	0.41054677516034
scalar barabasi_100nodes_network.node[14].content_store 	hits[14] 	991071
scalar barabasi_100nodes_network.node[14].content_store 	misses[14] 	1422956
scalar barabasi_100nodes_network.node[14].content_store 	decision_yes[14] 	810464
scalar barabasi_100nodes_network.node[14].content_store 	decision_no[14] 	612492
scalar barabasi_100nodes_network.node[14].content_store 	decision_ratio[14] 	0.5695636407591
scalar barabasi_100nodes_network.node[14].proactive_component 	hdistance[14].proactive_component 	4.730335388058
scalar barabasi_100nodes_network.node[14].proactive_component 	downloads[14].proactive_component 	624739
scalar barabasi_100nodes_network.node[14].proactive_component 	avg_time[14].proactive_component 	0
scalar barabasi_100nodes_network.node[15].core_layer 	interests[15] 	6574452
scalar barabasi_100nodes_network.node[15].core_layer 	data[15] 	4219016
scalar barabasi_100nodes_network.node[15].core_layer 	slots_sent[face$o[1]->client[15]] 	1363280110
scalar barabasi_100nodes_network.node[15].core_layer 	slots_sent[face$o[2]->node[0]] 	0
scalar barabasi_100nodes_network.node[15].core_layer 	slots_sent[face$o[3]->node[40]] 	1005662792
scalar barabasi_100nodes_network.node[15].core_layer 	slots_sent[face$o[4]->node[56]] 	1007911850
scalar barabasi_100nodes_network.node[15].content_store 	p_hit[15] 	0.17082168977734
scalar barabasi_100nodes_network.node[15].content_store 	hits[15] 	1123059
scalar barabasi_100nodes_network.node[15].content_store 	misses[15] 	5451393
scalar barabasi_100nodes_network.node[15].content_store 	decision_yes[15] 	2296218
scalar barabasi_100nodes_network.node[15].content_store 	decision_no[15] 	1922798
scalar barabasi_100nodes_network.node[15].content_store 	decision_ratio[15] 	0.54425439486364
scalar barabasi_100nodes_network.node[15].proactive_component 	hdistance[15].proactive_component 	3.3803376871876
scalar barabasi_100nodes_network.node[15].proactive_component 	downloads[15].proactive_component 	1960868
scalar barabasi_100nodes_network.node[15].proactive_component 	avg_time[15].proactive_component 	0
scalar barabasi_100nodes_network.node[16].core_layer 	interests[16] 	13956062
scalar barabasi_100nodes_network.node[16].core_layer 	data[16] 	9281657
scalar barabasi_100nodes_network.node[16].core_layer 	slots_sent[face$o[1]->client[16]] 	1409800391
scalar barabasi_100nodes_network.node[16].core_layer 	slots_sent[face$o[2]->node[2]] 	0
scalar barabasi_100nodes_network.node[16].core_layer 	slots_sent[face$o[3]->node[19]] 	4661486090
scalar barabasi_100nodes_network.node[16].core_layer 	slots_sent[face$o[4]->node[20]] 	1003308771
scalar barabasi_100nodes_network.node[16].content_store 	p_hit[16] 	0.085860825209862
scalar barabasi_100nodes_network.node[16].content_store 	hits[16] 	1198279
scalar barabasi_100nodes_network.node[16].content_store 	misses[16] 	12757783
scalar barabasi_100nodes_network.node[16].content_store 	decision_yes[16] 	5158054
scalar barabasi_100nodes_network.node[16].content_store 	decision_no[16] 	4123603
scalar barabasi_100nodes_network.node[16].content_store 	decision_ratio[16] 	0.55572555633116
scalar barabasi_100nodes_network.node[16].proactive_component 	hdistance[16].proactive_component 	4.2405957678337
scalar barabasi_100nodes_network.node[16].proactive_component 	downloads[16].proactive_component 	4205128
scalar barabasi_100nodes_network.node[16].proactive_component 	avg_time[16].proactive_component 	0
scalar barabasi_100nodes_network.node[17].core_layer 	interests[17] 	2410719
scalar barabasi_100nodes_network.node[17].core_layer 	data[17] 	1422481
scalar barabasi_100nodes_network.node[17].core_layer 	slots_sent[face$o[1]->client[17]] 	1445316939
scalar barabasi_100nodes_network.node[17].core_layer 	slots_sent[face$o[2]->node[8]] 	0
scalar barabasi_100nodes_network.node[17].content_store 	p_hit[17] 	0.40993496131237
scalar barabasi_100nodes_network.node[17].content_store 	hits[17] 	988238
scalar barabasi_100nodes_network.node[17].content_store 	misses[17] 	1422481
scalar barabasi_100nodes_network.node[17].content_store 	decision_yes[17] 	810130
scalar barabasi_100nodes_network.node[17].content_store 	decision_no[17] 	612351
scalar barabasi_100nodes_network.node[17].content_store 	decision_ratio[17] 	0.56951903048266
scalar barabasi_100nodes_network.node[17].proactive_component 	hdistance[17].proactive_component 	4.7281820306971
scalar barabasi_100nodes_network.node[17].proactive_component 	downloads[17].proactive_component 	624554
scalar barabasi_100nodes_network.node[17].proactive_component 	avg_time[17].proactive_component 	0
scalar barabasi_100nodes_network.node[18].core_layer 	interests[18] 	48051035
scalar barabasi_100nodes_network.node[18].core_layer 	data[18] 	30683502
scalar barabasi_100nodes_network.node[18].core_layer 	slots_sent[face$o[1]->client[18]] 	1316990179
scalar barabasi_100nodes_network.node[18].core_layer 	slots_sent[face$o[2]->node[2]] 	18486853144
scalar barabasi_100nodes_network.node[18].core_layer 	slots_sent[face$o[3]->node[53]] 	1007309236
scalar barabasi_100nodes_network.node[18].core_layer 	slots_sent[face$o[4]->node[68]] 	1007370107
scalar barabasi_100nodes_network.node[18].core_layer 	slots_sent[face$o[5]->node[72]] 	714117189
scalar barabasi_100nodes_network.node[18].content_store 	p_hit[18] 	0.064238283316894
scalar barabasi_100nodes_network.node[18].content_store 	hits[18] 	3086716
scalar barabasi_100nodes_network.node[18].content_store 	misses[18] 	44964319
scalar barabasi_100nodes_network.node[18].content_store 	decision_yes[18] 	15668767
scalar barabasi_100nodes_network.node[18].content_store 	decision_no[18] 	15014735
scalar barabasi_100nodes_network.node[18].content_store 	decision_ratio[18] 	0.51065771436389
scalar barabasi_100nodes_network.node[18].proactive_component 	hdistance[18].proactive_component 	2.2959778688267
scalar barabasi_100nodes_network.node[18].proactive_component 	downloads[18].proactive_component 	15314145
scalar barabasi_100nodes_network.node[18].proactive_component 	avg_time[18].proactive_component 	0
scalar barabasi_100nodes_network.node[19].core_layer 	interests[19] 	10211875
scalar barabasi_100nodes_network.node[19].core_layer 	data[19] 	6640026
scalar barabasi_100nodes_network.node[19].core_layer 	slots_sent[face$o[1]->client[19]] 	1444940085
scalar barabasi_100nodes_network.node[19].core_layer 	slots_sent[face$o[2]->node[16]] 	0
scalar barabasi_100nodes_network.node[19].core_layer 	slots_sent[face$o[3]->node[63]] 	1002324972
scalar barabasi_100nodes_network.node[19].core_layer 	slots_sent[face$o[4]->node[70]] 	1003949225
scalar barabasi_100nodes_network.node[19].core_layer 	slots_sent[face$o[5]->node[80]] 	1000911173
scalar barabasi_100nodes_network.node[19].core_layer 	slots_sent[face$o[6]->node[89]] 	1000928566
scalar barabasi_100nodes_network.node[19].content_store 	p_hit[19] 	0.12665979558112
scalar barabasi_100nodes_network.node[19].content_store 	hits[19] 	1293434
scalar barabasi_100nodes_network.node[19].content_store 	misses[19] 	8918441
scalar barabasi_100nodes_network.node[19].content_store 	decision_yes[19] 	3746470
scalar barabasi_100nodes_network.node[19].content_store 	decision_no[19] 	2893556
scalar barabasi_100nodes_network.node[19].content_store 	decision_ratio[19] 	0.56422520032301
scalar barabasi_100nodes_network.node[19].proactive_component 	hdistance[19].proactive_component 	5.2412044021707
scalar barabasi_100nodes_network.node[19].proactive_component 	downloads[19].proactive_component 	2950908
scalar barabasi_100nodes_network.node[19].proactive_component 	avg_time[19].proactive_component 	0
scalar barabasi_100nodes_network.node[20].core_layer 	interests[20] 	2383451
scalar barabasi_100nodes_network.node[20].core_layer 	data[20] 	1392383
scalar barabasi_100nodes_network.node[20].core_layer 	slots_sent[face$o[1]->client[20]] 	1480025937
scalar barabasi_100nodes_network.node[20].core_layer 	slots_sent[face$o[2]->node[16]] 	0
scalar barabasi_100nodes_network.node[20].content_store 	p_hit[20] 	0.41581219836279
scalar barabasi_100nodes_network.node[20].content_store 	hits[20] 	991068
scalar barabasi_100nodes_network.node[20].content_store 	misses[20] 	1392383
scalar barabasi_100nodes_network.node[20].content_store 	decision_yes[20] 	809813
scalar barabasi_100nodes_network.node[20].content_store 	decision_no[20] 	582570
scalar barabasi_100nodes_network.node[20].content_store 	decision_ratio[20] 	0.58160218847831
scalar barabasi_100nodes_network.node[20].proactive_component 	hdistance[20].proactive_component 	5.2407383099246
scalar barabasi_100nodes_network.node[20].proactive_component 	downloads[20].proactive_component 	594222
scalar barabasi_100nodes_network.node[20].proactive_component 	avg_time[20].proactive_component 	0
scalar barabasi_100nodes_network.node[21].core_layer 	interests[21] 	5995508
scalar barabasi_100nodes_network.node[21].core_layer 	data[21] 	3844772
scalar barabasi_100nodes_network.node[21].core_layer 	slots_sent[face$o[1]->client[21]] 	1362098186
scalar barabasi_100nodes_network.node[21].core_layer 	slots_sent[face$o[2]->node[0]] 	0
scalar barabasi_100nodes_network.node[21].core_layer 	slots_sent[face$o[3]->node[24]] 	1005424843
scalar barabasi_100nodes_network.node[21].core_layer 	slots_sent[face$o[4]->node[57]] 	714887027
scalar barabasi_100nodes_network.node[21].content_store 	p_hit[21] 	0.18174906947001
scalar barabasi_100nodes_network.node[21].content_store 	hits[21] 	1089678
scalar barabasi_100nodes_network.node[21].content_store 	misses[21] 	4905830
scalar barabasi_100nodes_network.node[21].content_store 	decision_yes[21] 	2092602
scalar barabasi_100nodes_network.node[21].content_store 	decision_no[21] 	1752170
scalar barabasi_100nodes_network.node[21].content_store 	decision_ratio[21] 	0.5442720660679
scalar barabasi_100nodes_network.node[21].proactive_component 	hdistance[21].proactive_component 	3.4134076430805
scalar barabasi_100nodes_network.node[21].proactive_component 	downloads[21].proactive_component 	1787473
scalar barabasi_100nodes_network.node[21].proactive_component 	avg_time[21].proactive_component 	0
scalar barabasi_100nodes_network.node[22].core_layer 	interests[22] 	2468267
scalar barabasi_100nodes_network.node[22].core_layer 	data[22] 	1476138
scalar barabasi_100nodes_network.node[22].core_layer 	slots_sent[face$o[1]->client[22]] 	1391654033
scalar barabasi_100nodes_network.node[22].core_layer 	slots_sent[face$o[2]->node[0]] 	0
scalar barabasi_100nodes_network.node[22].content_store 	p_hit[22] 	0.40195367843106
scalar barabasi_100nodes_network.node[22].content_store 	hits[22] 	992129
scalar barabasi_100nodes_network.node[22].content_store 	misses[22] 	1476138
scalar barabasi_100nodes_network.node[22].content_store 	decision_yes[22] 	809704
scalar barabasi_100nodes_network.node[22].content_store 	decision_no[22] 	666434
scalar barabasi_100nodes_network.node[22].content_store 	decision_ratio[22] 	0.54852866059948
scalar barabasi_100nodes_network.node[22].proactive_component 	hdistance[22].proactive_component 	3.3676114551311
scalar barabasi_100nodes_network.node[22].proactive_component 	downloads[22].proactive_component 	679870
scalar barabasi_100nodes_network.node[22].proactive_component 	avg_time[22].proactive_component 	0
scalar barabasi_100nodes_network.node[23].core_layer 	interests[23] 	12956589
scalar barabasi_100nodes_network.node[23].core_layer 	data[23] 	8491573
scalar barabasi_100nodes_network.node[23].core_layer 	slots_sent[face$o[1]->client[23]] 	1440779086
scalar barabasi_100nodes_network.node[23].core_layer 	slots_sent[face$o[2]->node[7]] 	0
scalar barabasi_100nodes_network.node[23].core_layer 	slots_sent[face$o[3]->node[46]] 	1397560756
scalar barabasi_100nodes_network.node[23].core_layer 	slots_sent[face$o[4]->node[47]] 	1000658889
scalar barabasi_100nodes_network.node[23].core_layer 	slots_sent[face$o[5]->node[51]] 	1002936217
scalar barabasi_100nodes_network.node[23].core_layer 	slots_sent[face$o[6]->node[83]] 	1001804389
scalar barabasi_100nodes_network.node[23].core_layer 	slots_sent[face$o[7]->node[86]] 	1001216166
scalar barabasi_100nodes_network.node[23].content_store 	p_hit[23] 	0.1063089212755
scalar barabasi_100nodes_network.node[23].content_store 	hits[23] 	1377401
scalar barabasi_100nodes_network.node[23].content_store 	misses[23] 	11579188
scalar barabasi_100nodes_network.node[23].content_store 	decision_yes[23] 	4787283
scalar barabasi_100nodes_network.node[23].content_store 	decision_no[23] 	3704290
scalar barabasi_100nodes_network.node[23].content_store 	decision_ratio[23] 	0.56376869161933
scalar barabasi_100nodes_network.node[23].proactive_component 	hdistance[23].proactive_component 	5.2597405932281
scalar barabasi_100nodes_network.node[23].proactive_component 	downloads[23].proactive_component 	3777465
scalar barabasi_100nodes_network.node[23].proactive_component 	avg_time[23].proactive_component 	0
scalar barabasi_100nodes_network.node[24].core_layer 	interests[24] 	2417266
scalar barabasi_100nodes_network.node[24].core_layer 	data[24] 	1426177
scalar barabasi_100nodes_network.node[24].core_layer 	slots_sent[face$o[1]->client[24]] 	1441347190
scalar barabasi_100nodes_network.node[24].core_layer 	slots_sent[face$o[2]->node[21]] 	0
scalar barabasi_100nodes_network.node[24].content_store 	p_hit[24] 	0.41000411208365
scalar barabasi_100nodes_network.node[24].content_store 	hits[24] 	991089
scalar barabasi_100nodes_network.node[24].content_store 	misses[24] 	1426177
scalar barabasi_100nodes_network.node[24].content_store 	decision_yes[24] 	808629
scalar barabasi_100nodes_network.node[24].content_store 	decision_no[24] 	617548
scalar barabasi_100nodes_network.node[24].content_store 	decision_ratio[24] 	0.56699063299997
scalar barabasi_100nodes_network.node[24].proactive_component 	hdistance[24].proactive_component 	4.3929641205705
scalar barabasi_100nodes_network.node[24].proactive_component 	downloads[24].proactive_component 	629971
scalar barabasi_100nodes_network.node[24].proactive_component 	avg_time[24].proactive_component 	0
scalar barabasi_100nodes_network.node[25].core_layer 	interests[25] 	4408717
scalar barabasi_100nodes_network.node[25].core_layer 	data[25] 	2777495
scalar barabasi_100nodes_network.node[25].core_layer 	slots_sent[face$o[1]->client[25]] 	1430686045
scalar barabasi_100nodes_network.node[25].core_layer 	slots_sent[face$o[2]->node[2]] 	0
scalar barabasi_100nodes_network.node[25].core_layer 	slots_sent[face$o[3]->node[38]] 	1003939810
scalar barabasi_100nodes_network.node[25].content_store 	p_hit[25] 	0.23700183069133
scalar barabasi_100nodes_network.node[25].content_store 	hits[25] 	1044874
scalar barabasi_100nodes_network.node[25].content_store 	misses[25] 	3363843
scalar barabasi_100nodes_network.node[25].content_store 	decision_yes[25] 	1564269
scalar barabasi_100nodes_network.node[25].content_store 	decision_no[25] 	1213226
scalar barabasi_100nodes_network.node[25].content_store 	decision_ratio[25] 	0.56319417316683
scalar barabasi_100nodes_network.node[25].proactive_component 	hdistance[25].proactive_component 	4.2400040095518
scalar barabasi_100nodes_network.node[25].proactive_component 	downloads[25].proactive_component 	1237046
scalar barabasi_100nodes_network.node[25].proactive_component 	avg_time[25].proactive_component 	0
scalar barabasi_100nodes_network.node[26].core_layer 	interests[26] 	7243960
scalar barabasi_100nodes_network.node[26].core_layer 	data[26] 	4694387
scalar barabasi_100nodes_network.node[26].core_layer 	slots_sent[face$o[1]->client[26]] 	1420002100
scalar barabasi_100nodes_network.node[26].core_layer 	slots_sent[face$o[2]->node[2]] 	0
scalar barabasi_100nodes_network.node[26].core_layer 	slots_sent[face$o[3]->node[77]] 	1394857056
scalar barabasi_100nodes_network.node[26].core_layer 	slots_sent[face$o[4]->node[91]] 	1001719428
scalar barabasi_100nodes_network.node[26].content_store 	p_hit[26] 	0.15321026068614
scalar barabasi_100nodes_network.node[26].content_store 	hits[26] 	1109849
scalar barabasi_100nodes_network.node[26].content_store 	misses[26] 	6134111
scalar barabasi_100nodes_network.node[26].content_store 	decision_yes[26] 	2618683
scalar barabasi_100nodes_network.node[26].content_store 	decision_no[26] 	2075704
scalar barabasi_100nodes_network.node[26].content_store 	decision_ratio[26] 	0.55783279052196
scalar barabasi_100nodes_network.node[26].proactive_component 	hdistance[26].proactive_component 	4.1440245900823
scalar barabasi_100nodes_network.node[26].proactive_component 	downloads[26].proactive_component 	2116951
scalar barabasi_100nodes_network.node[26].proactive_component 	avg_time[26].proactive_component 	0
scalar barabasi_100nodes_network.node[27].core_layer 	interests[27] 	4463401
scalar barabasi_100nodes_network.node[27].core_layer 	data[27] 	2816535
scalar barabasi_100nodes_network.node[27].core_layer 	slots_sent[face$o[1]->client[27]] 	1404925647
scalar barabasi_100nodes_network.node[27].core_layer 	slots_sent[face$o[2]->node[4]] 	0
scalar barabasi_100nodes_network.node[27].core_layer 	slots_sent[face$o[3]->node[99]] 	1005592898
scalar barabasi_100nodes_network.node[27].content_store 	p_hit[27] 	0.2343282622377
scalar barabasi_100nodes_network.node[27].content_store 	hits[27] 	1045901
scalar barabasi_100nodes_network.node[27].content_store 	misses[27] 	3417500
scalar barabasi_100nodes_network.node[27].content_store 	decision_yes[27] 	1563952
scalar barabasi_100nodes_network.node[27].content_store 	decision_no[27] 	1252583
scalar barabasi_100nodes_network.node[27].content_store 	decision_ratio[27] 	0.55527518742
scalar barabasi_100nodes_network.node[27].proactive_component 	hdistance[27].proactive_component 	4.2777497840488
scalar barabasi_100nodes_network.node[27].proactive_component 	downloads[27].proactive_component 	1278064
scalar barabasi_100nodes_network.node[27].proactive_component 	avg_time[27].proactive_component 	0
scalar barabasi_100nodes_network.node[28].core_layer 	interests[28] 	2466113
scalar barabasi_100nodes_network.node[28].core_layer 	data[28] 	1476155
scalar barabasi_100nodes_network.node[28].core_layer 	slots_sent[face$o[1]->client[28]] 	1388847661
scalar barabasi_100nodes_network.node[28].core_layer 	slots_sent[face$o[2]->node[0]] 	0
scalar barabasi_100nodes_network.node[28].content_store 	p_hit[28] 	0.40142442783441
scalar barabasi_100nodes_network.node[28].content_store 	hits[28] 	989958
scalar barabasi_100nodes_network.node[28].content_store 	misses[28] 	1476155
scalar barabasi_100nodes_network.node[28].content_store 	decision_yes[28] 	809590
scalar barabasi_100nodes_network.node[28].content_store 	decision_no[28] 	666565
scalar barabasi_100nodes_network.node[28].content_store 	decision_ratio[28] 	0.54844511585843
scalar barabasi_100nodes_network.node[28].proactive_component 	hdistance[28].proactive_component 	3.3675674006634
scalar barabasi_100nodes_network.node[28].proactive_component 	downloads[28].proactive_component 	680112
scalar barabasi_100nodes_network.node[28].proactive_component 	avg_time[28].proactive_component 	0
scalar barabasi_100nodes_network.node[29].core_layer 	interests[29] 	2412258
scalar barabasi_100nodes_network.node[29].core_layer 	data[29] 	1423542
scalar barabasi_100nodes_network.node[29].core_layer 	slots_sent[face$o[1]->client[29]] 	1438990128
scalar barabasi_100nodes_network.node[29].core_layer 	slots_sent[face$o[2]->node[2]] 	0
scalar barabasi_100nodes_network.node[29].content_store 	p_hit[29] 	0.40987158090055
scalar barabasi_100nodes_network.node[29].content_store 	hits[29] 	988716
scalar barabasi_100nodes_network.node[29].content_store 	misses[29] 	1423542
scalar barabasi_100nodes_network.node[29].content_store 	decision_yes[29] 	807555
scalar barabasi_100nodes_network.node[29].content_store 	decision_no[29] 	615987
scalar barabasi_100nodes_network.node[29].content_store 	decision_ratio[29] 	0.56728568598608
scalar barabasi_100nodes_network.node[29].proactive_component 	hdistance[29].proactive_component 	4.2391513645034
scalar barabasi_100nodes_network.node[29].proactive_component 	downloads[29].proactive_component 	628397
scalar barabasi_100nodes_network.node[29].proactive_component 	avg_time[29].proactive_component 	0
scalar barabasi_100nodes_network.node[30].core_layer 	interests[30] 	4469011
scalar barabasi_100nodes_network.node[30].core_layer 	data[30] 	2821380
scalar barabasi_100nodes_network.node[30].core_layer 	slots_sent[face$o[1]->client[30]] 	1405796689
scalar barabasi_100nodes_network.node[30].core_layer 	slots_sent[face$o[2]->node[4]] 	0
scalar barabasi_100nodes_network.node[30].core_layer 	slots_sent[face$o[3]->node[88]] 	1005297244
scalar barabasi_100nodes_network.node[30].content_store 	p_hit[30] 	0.23418268605738
scalar barabasi_100nodes_network.node[30].content_store 	hits[30] 	1046565
scalar barabasi_100nodes_network.node[30].content_store 	misses[30] 	3422446
scalar barabasi_100nodes_network.node[30].content_store 	decision_yes[30] 	1566124
scalar barabasi_100nodes_network.node[30].content_store 	decision_no[30] 	1255256
scalar barabasi_100nodes_network.node[30].content_store 	decision_ratio[30] 	0.55509148005586
scalar barabasi_100nodes_network.node[30].proactive_component 	hdistance[30].proactive_component 	4.2769705395358
scalar barabasi_100nodes_network.node[30].proactive_component 	downloads[30].proactive_component 	1280360
scalar barabasi_100nodes_network.node[30].proactive_component 	avg_time[30].proactive_component 	0
scalar barabasi_100nodes_network.node[31].core_layer 	interests[31] 	6071653
scalar barabasi_100nodes_network.node[31].core_layer 	data[31] 	3942410
scalar barabasi_100nodes_network.node[31].core_layer 	slots_sent[face$o[1]->client[31]] 	1458111429
scalar barabasi_100nodes_network.node[31].core_layer 	slots_sent[face$o[2]->node[7]] 	0
scalar barabasi_100nodes_network.node[31].core_layer 	slots_sent[face$o[3]->node[65]] 	1817112330
scalar barabasi_100nodes_network.node[31].content_store 	p_hit[31] 	0.16887954565256
scalar barabasi_100nodes_network.node[31].content_store 	hits[31] 	1025378
scalar barabasi_100nodes_network.node[31].content_store 	misses[31] 	5046275
scalar barabasi_100nodes_network.node[31].content_store 	decision_yes[31] 	2236772
scalar barabasi_100nodes_network.node[31].content_store 	decision_no[31] 	1705638
scalar barabasi_100nodes_network.node[31].content_store 	decision_ratio[31] 	0.56736158847
scalar barabasi_100nodes_network.node[31].proactive_component 	hdistance[31].proactive_component 	5.3148207648081
scalar barabasi_100nodes_network.node[31].proactive_component 	downloads[31].proactive_component 	1739809
scalar barabasi_100nodes_network.node[31].proactive_component 	avg_time[31].proactive_component 	0
scalar barabasi_100nodes_network.node[32].core_layer 	interests[32] 	6387049
scalar barabasi_100nodes_network.node[32].core_layer 	data[32] 	4097417
scalar barabasi_100nodes_network.node[32].core_layer 	slots_sent[face$o[1]->client[32]] 	1426172473
scalar barabasi_100nodes_network.node[32].core_layer 	slots_sent[face$o[2]->node[2]] 	0
scalar barabasi_100nodes_network.node[32].core_layer 	slots_sent[face$o[3]->node[43]] 	1003369966
scalar barabasi_100nodes_network.node[32].core_layer 	slots_sent[face$o[4]->node[64]] 	1003991490
scalar barabasi_100nodes_network.node[32].content_store 	p_hit[32] 	0.17588372971618
scalar barabasi_100nodes_network.node[32].content_store 	hits[32] 	1123378
scalar barabasi_100nodes_network.node[32].content_store 	misses[32] 	5263671
scalar barabasi_100nodes_network.node[32].content_store 	decision_yes[32] 	2297886
scalar barabasi_100nodes_network.node[32].content_store 	decision_no[32] 	1799531
scalar barabasi_100nodes_network.node[32].content_store 	decision_ratio[32] 	0.5608133123868
scalar barabasi_100nodes_network.node[32].proactive_component 	hdistance[32].proactive_component 	4.239412449748
scalar barabasi_100nodes_network.node[32].proactive_component 	downloads[32].proactive_component 	1835009
scalar barabasi_100nodes_network.node[32].proactive_component 	avg_time[32].proactive_component 	0
scalar barabasi_100nodes_network.node[33].core_layer 	interests[33] 	2417767
scalar barabasi_100nodes_network.node[33].core_layer 	data[33] 	1428186
scalar barabasi_100nodes_network.node[33].core_layer 	slots_sent[face$o[1]->client[33]] 	1440124551
scalar barabasi_100nodes_network.node[33].core_layer 	slots_sent[face$o[2]->node[2]] 	0
scalar barabasi_100nodes_network.node[33].content_store 	p_hit[33] 	0.40929543665705
scalar barabasi_100nodes_network.node[33].content_store 	hits[33] 	989581
scalar barabasi_100nodes_network.node[33].content_store 	misses[33] 	1428186
scalar barabasi_100nodes_network.node[33].content_store 	decision_yes[33] 	809829
scalar barabasi_100nodes_network.node[33].content_store 	decision_no[33] 	618357
scalar barabasi_100nodes_network.node[33].content_store 	decision_ratio[33] 	0.56703328558045
scalar barabasi_100nodes_network.node[33].proactive_component 	hdistance[33].proactive_component 	4.2390949666637
scalar barabasi_100nodes_network.node[33].proactive_component 	downloads[33].proactive_component 	630695
scalar barabasi_100nodes_network.node[33].proactive_component 	avg_time[33].proactive_component 	0
scalar barabasi_100nodes_network.node[34].core_layer 	interests[34] 	2415098
scalar barabasi_100nodes_network.node[34].core_layer 	data[34] 	1426211
scalar barabasi_100nodes_network.node[34].core_layer 	slots_sent[face$o[1]->client[34]] 	1439840306
scalar barabasi_100nodes_network.node[34].core_layer 	slots_sent[face$o[2]->node[2]] 	0
scalar barabasi_100nodes_network.node[34].content_store 	p_hit[34] 	0.40946040284908
scalar barabasi_100nodes_network.node[34].content_store 	hits[34] 	988887
scalar barabasi_100nodes_network.node[34].content_store 	misses[34] 	1426211
scalar barabasi_100nodes_network.node[34].content_store 	decision_yes[34] 	809121
scalar barabasi_100nodes_network.node[34].content_store 	decision_no[34] 	617090
scalar barabasi_100nodes_network.node[34].content_store 	decision_ratio[34] 	0.56732208628317
scalar barabasi_100nodes_network.node[34].proactive_component 	hdistance[34].proactive_component 	4.2388090766671
scalar barabasi_100nodes_network.node[34].proactive_component 	downloads[34].proactive_component 	629394
scalar barabasi_100nodes_network.node[34].proactive_component 	avg_time[34].proactive_component 	0
scalar barabasi_100nodes_network.node[35].core_layer 	interests[35] 	4528536
scalar barabasi_100nodes_network.node[35].core_layer 	data[35] 	2861469
scalar barabasi_100nodes_network.node[35].core_layer 	slots_sent[face$o[1]->client[35]] 	1382499754
scalar barabasi_100nodes_network.node[35].core_layer 	slots_sent[face$o[2]->node[5]] 	0
scalar barabasi_100nodes_network.node[35].core_layer 	slots_sent[face$o[3]->node[50]] 	1008302202
scalar barabasi_100nodes_network.node[35].content_store 	p_hit[35] 	0.23127076830128
scalar barabasi_100nodes_network.node[35].content_store 	hits[35] 	1047318
scalar barabasi_100nodes_network.node[35].content_store 	misses[35] 	3481218
scalar barabasi_100nodes_network.node[35].content_store 	decision_yes[35] 	1566035
scalar barabasi_100nodes_network.node[35].content_store 	decision_no[35] 	1295434
scalar barabasi_100nodes_network.node[35].content_store 	decision_ratio[35] 	0.54728358056649
scalar barabasi_100nodes_network.node[35].proactive_component 	hdistance[35].proactive_component 	3.9255705941686
scalar barabasi_100nodes_network.node[35].proactive_component 	downloads[35].proactive_component 	1321561
scalar barabasi_100nodes_network.node[35].proactive_component 	avg_time[35].proactive_component 	0
scalar barabasi_100nodes_network.node[36].core_layer 	interests[36] 	4408373
scalar barabasi_100nodes_network.node[36].core_layer 	data[36] 	2776457
scalar barabasi_100nodes_network.node[36].core_layer 	slots_sent[face$o[1]->client[36]] 	1433164441
scalar barabasi_100nodes_network.node[36].core_layer 	slots_sent[face$o[2]->node[2]] 	0
scalar barabasi_100nodes_network.node[36].core_layer 	slots_sent[face$o[3]->node[75]] 	1002453982
[...]
scalar barabasi_100nodes_network.client[9] 	downloads[9].real 	1799248
scalar barabasi_100nodes_network.client[9] 	avg_time[9].real 	0
scalar barabasi_100nodes_network.client[10] 	hdistance[10].real 	1.4119120309501
scalar barabasi_100nodes_network.client[10] 	downloads[10].real 	1799542
scalar barabasi_100nodes_network.client[10] 	avg_time[10].real 	0
scalar barabasi_100nodes_network.client[11] 	hdistance[11].real 	1.3711501247737
scalar barabasi_100nodes_network.client[11] 	downloads[11].real 	1798857
scalar barabasi_100nodes_network.client[11] 	avg_time[11].real 	0
scalar barabasi_100nodes_network.client[12] 	hdistance[12].real 	1.7192739441668
scalar barabasi_100nodes_network.client[12] 	downloads[12].real 	1798319
scalar barabasi_100nodes_network.client[12] 	avg_time[12].real 	0
scalar barabasi_100nodes_network.client[13] 	hdistance[13].real 	1.7282556218961
scalar barabasi_100nodes_network.client[13] 	downloads[13].real 	1799971
scalar barabasi_100nodes_network.client[13] 	avg_time[13].real 	0
scalar barabasi_100nodes_network.client[14] 	hdistance[14].real 	1.8285034706514
scalar barabasi_100nodes_network.client[14] 	downloads[14].real 	1801535
scalar barabasi_100nodes_network.client[14] 	avg_time[14].real 	0
scalar barabasi_100nodes_network.client[15] 	hdistance[15].real 	1.437453423294
scalar barabasi_100nodes_network.client[15] 	downloads[15].real 	1799451
scalar barabasi_100nodes_network.client[15] 	avg_time[15].real 	0
scalar barabasi_100nodes_network.client[16] 	hdistance[16].real 	1.7598105608177
scalar barabasi_100nodes_network.client[16] 	downloads[16].real 	1800050
scalar barabasi_100nodes_network.client[16] 	avg_time[16].real 	0
scalar barabasi_100nodes_network.client[17] 	hdistance[17].real 	1.8308027055642
scalar barabasi_100nodes_network.client[17] 	downloads[17].real 	1798368
scalar barabasi_100nodes_network.client[17] 	avg_time[17].real 	0
scalar barabasi_100nodes_network.client[18] 	hdistance[18].real 	1.7796744195093
scalar barabasi_100nodes_network.client[18] 	downloads[18].real 	1799555
scalar barabasi_100nodes_network.client[18] 	avg_time[18].real 	0
scalar barabasi_100nodes_network.client[19] 	hdistance[19].real 	2.1075121793006
scalar barabasi_100nodes_network.client[19] 	downloads[19].real 	1800596
scalar barabasi_100nodes_network.client[19] 	avg_time[19].real 	0
scalar barabasi_100nodes_network.client[20] 	hdistance[20].real 	1.9444638485275
scalar barabasi_100nodes_network.client[20] 	downloads[20].real 	1800881
scalar barabasi_100nodes_network.client[20] 	avg_time[20].real 	0
scalar barabasi_100nodes_network.client[21] 	hdistance[21].real 	1.4363904684086
scalar barabasi_100nodes_network.client[21] 	downloads[21].real 	1799070
scalar barabasi_100nodes_network.client[21] 	avg_time[21].real 	0
scalar barabasi_100nodes_network.client[22] 	hdistance[22].real 	1.3727959250386
scalar barabasi_100nodes_network.client[22] 	downloads[22].real 	1801833
scalar barabasi_100nodes_network.client[22] 	avg_time[22].real 	0
scalar barabasi_100nodes_network.client[23] 	hdistance[23].real 	2.1239512397737
scalar barabasi_100nodes_network.client[23] 	downloads[23].real 	1798433
scalar barabasi_100nodes_network.client[23] 	avg_time[23].real 	0
scalar barabasi_100nodes_network.client[24] 	hdistance[24].real 	1.7054455197981
scalar barabasi_100nodes_network.client[24] 	downloads[24].real 	1799718
scalar barabasi_100nodes_network.client[24] 	avg_time[24].real 	0
scalar barabasi_100nodes_network.client[25] 	hdistance[25].real 	1.6706271368169
scalar barabasi_100nodes_network.client[25] 	downloads[25].real 	1799113
scalar barabasi_100nodes_network.client[25] 	avg_time[25].real 	0
scalar barabasi_100nodes_network.client[26] 	hdistance[26].real 	1.7176980225549
scalar barabasi_100nodes_network.client[26] 	downloads[26].real 	1798280
scalar barabasi_100nodes_network.client[26] 	avg_time[26].real 	0
scalar barabasi_100nodes_network.client[27] 	hdistance[27].real 	1.7334528374542
scalar barabasi_100nodes_network.client[27] 	downloads[27].real 	1799659
scalar barabasi_100nodes_network.client[27] 	avg_time[27].real 	0
scalar barabasi_100nodes_network.client[28] 	hdistance[28].real 	1.3742750957463
scalar barabasi_100nodes_network.client[28] 	downloads[28].real 	1799548
scalar barabasi_100nodes_network.client[28] 	avg_time[28].real 	0
scalar barabasi_100nodes_network.client[29] 	hdistance[29].real 	1.6279364305275
scalar barabasi_100nodes_network.client[29] 	downloads[29].real 	1796271
scalar barabasi_100nodes_network.client[29] 	avg_time[29].real 	0
scalar barabasi_100nodes_network.client[30] 	hdistance[30].real 	1.7361469127564
scalar barabasi_100nodes_network.client[30] 	downloads[30].real 	1802757
scalar barabasi_100nodes_network.client[30] 	avg_time[30].real 	0
scalar barabasi_100nodes_network.client[31] 	hdistance[31].real 	2.0483335741195
scalar barabasi_100nodes_network.client[31] 	downloads[31].real 	1799660
scalar barabasi_100nodes_network.client[31] 	avg_time[31].real 	0
scalar barabasi_100nodes_network.client[32] 	hdistance[32].real 	1.6962604991627
scalar barabasi_100nodes_network.client[32] 	downloads[32].real 	1801096
scalar barabasi_100nodes_network.client[32] 	avg_time[32].real 	0
scalar barabasi_100nodes_network.client[33] 	hdistance[33].real 	1.6307567480452
scalar barabasi_100nodes_network.client[33] 	downloads[33].real 	1799410
scalar barabasi_100nodes_network.client[33] 	avg_time[33].real 	0
scalar barabasi_100nodes_network.client[34] 	hdistance[34].real 	1.6295077663726
scalar barabasi_100nodes_network.client[34] 	downloads[34].real 	1798008
scalar barabasi_100nodes_network.client[34] 	avg_time[34].real 	0
scalar barabasi_100nodes_network.client[35] 	hdistance[35].real 	1.6466009818874
scalar barabasi_100nodes_network.client[35] 	downloads[35].real 	1802447
scalar barabasi_100nodes_network.client[35] 	avg_time[35].real 	0
scalar barabasi_100nodes_network.client[36] 	hdistance[36].real 	1.6699555621669
scalar barabasi_100nodes_network.client[36] 	downloads[36].real 	1801618
scalar barabasi_100nodes_network.client[36] 	avg_time[36].real 	0
scalar barabasi_100nodes_network.client[37] 	hdistance[37].real 	1.2575893834782
scalar barabasi_100nodes_network.client[37] 	downloads[37].real 	1799158
scalar barabasi_100nodes_network.client[37] 	avg_time[37].real 	0
scalar barabasi_100nodes_network.client[38] 	hdistance[38].real 	1.9589134210563
scalar barabasi_100nodes_network.client[38] 	downloads[38].real 	1799225
scalar barabasi_100nodes_network.client[38] 	avg_time[38].real 	0
scalar barabasi_100nodes_network.client[39] 	hdistance[39].real 	1.8690469575499
scalar barabasi_100nodes_network.client[39] 	downloads[39].real 	1799668
scalar barabasi_100nodes_network.client[39] 	avg_time[39].real 	0
scalar barabasi_100nodes_network.client[40] 	hdistance[40].real 	1.7056593574951
scalar barabasi_100nodes_network.client[40] 	downloads[40].real 	1798243
scalar barabasi_100nodes_network.client[40] 	avg_time[40].real 	0
scalar barabasi_100nodes_network.client[41] 	hdistance[41].real 	1.7544592327691
scalar barabasi_100nodes_network.client[41] 	downloads[41].real 	1799693
scalar barabasi_100nodes_network.client[41] 	avg_time[41].real 	0
scalar barabasi_100nodes_network.client[42] 	hdistance[42].real 	1.9447261376091
scalar barabasi_100nodes_network.client[42] 	downloads[42].real 	1801014
scalar barabasi_100nodes_network.client[42] 	avg_time[42].real 	0
scalar barabasi_100nodes_network.client[43] 	hdistance[43].real 	1.9493567903368
scalar barabasi_100nodes_network.client[43] 	downloads[43].real 	1799491
scalar barabasi_100nodes_network.client[43] 	avg_time[43].real 	0
scalar barabasi_100nodes_network.client[44] 	hdistance[44].real 	1.375637978338
scalar barabasi_100nodes_network.client[44] 	downloads[44].real 	1799826
scalar barabasi_100nodes_network.client[44] 	avg_time[44].real 	0
scalar barabasi_100nodes_network.client[45] 	hdistance[45].real 	1.6315878951793
scalar barabasi_100nodes_network.client[45] 	downloads[45].real 	1799911
scalar barabasi_100nodes_network.client[45] 	avg_time[45].real 	0
scalar barabasi_100nodes_network.client[46] 	hdistance[46].real 	1.9287890866184
scalar barabasi_100nodes_network.client[46] 	downloads[46].real 	1802631
scalar barabasi_100nodes_network.client[46] 	avg_time[46].real 	0
scalar barabasi_100nodes_network.client[47] 	hdistance[47].real 	2.2876201723263
scalar barabasi_100nodes_network.client[47] 	downloads[47].real 	1798563
scalar barabasi_100nodes_network.client[47] 	avg_time[47].real 	0
scalar barabasi_100nodes_network.client[48] 	hdistance[48].real 	1.9495089126545
scalar barabasi_100nodes_network.client[48] 	downloads[48].real 	1803447
scalar barabasi_100nodes_network.client[48] 	avg_time[48].real 	0
scalar barabasi_100nodes_network.client[49] 	hdistance[49].real 	1.9575101410169
scalar barabasi_100nodes_network.client[49] 	downloads[49].real 	1796664
scalar barabasi_100nodes_network.client[49] 	avg_time[49].real 	0
scalar barabasi_100nodes_network.client[50] 	hdistance[50].real 	1.9198470401911
scalar barabasi_100nodes_network.client[50] 	downloads[50].real 	1802042
scalar barabasi_100nodes_network.client[50] 	avg_time[50].real 	0
scalar barabasi_100nodes_network.client[51] 	hdistance[51].real 	2.2899721852017
scalar barabasi_100nodes_network.client[51] 	downloads[51].real 	1801559
scalar barabasi_100nodes_network.client[51] 	avg_time[51].real 	0
scalar barabasi_100nodes_network.client[52] 	hdistance[52].real 	1.9555659445454
scalar barabasi_100nodes_network.client[52] 	downloads[52].real 	1798913
scalar barabasi_100nodes_network.client[52] 	avg_time[52].real 	0
scalar barabasi_100nodes_network.client[53] 	hdistance[53].real 	1.8453461844323
scalar barabasi_100nodes_network.client[53] 	downloads[53].real 	1801973
scalar barabasi_100nodes_network.client[53] 	avg_time[53].real 	0
scalar barabasi_100nodes_network.client[54] 	hdistance[54].real 	1.9985662966691
scalar barabasi_100nodes_network.client[54] 	downloads[54].real 	1796048
scalar barabasi_100nodes_network.client[54] 	avg_time[54].real 	0
scalar barabasi_100nodes_network.client[55] 	hdistance[55].real 	1.6636289312088
scalar barabasi_100nodes_network.client[55] 	downloads[55].real 	1800464
scalar barabasi_100nodes_network.client[55] 	avg_time[55].real 	0
scalar barabasi_100nodes_network.client[56] 	hdistance[56].real 	1.7034018914445
scalar barabasi_100nodes_network.client[56] 	downloads[56].real 	1801586
scalar barabasi_100nodes_network.client[56] 	avg_time[56].real 	0
scalar barabasi_100nodes_network.client[57] 	hdistance[57].real 	1.4885212900529
scalar barabasi_100nodes_network.client[57] 	downloads[57].real 	1799244
scalar barabasi_100nodes_network.client[57] 	avg_time[57].real 	0
scalar barabasi_100nodes_network.client[58] 	hdistance[58].real 	1.4128874450772
scalar barabasi_100nodes_network.client[58] 	downloads[58].real 	1800481
scalar barabasi_100nodes_network.client[58] 	avg_time[58].real 	0
scalar barabasi_100nodes_network.client[59] 	hdistance[59].real 	1.6301590661717
scalar barabasi_100nodes_network.client[59] 	downloads[59].real 	1799817
scalar barabasi_100nodes_network.client[59] 	avg_time[59].real 	0
scalar barabasi_100nodes_network.client[60] 	hdistance[60].real 	1.8030455206905
scalar barabasi_100nodes_network.client[60] 	downloads[60].real 	1801137
scalar barabasi_100nodes_network.client[60] 	avg_time[60].real 	0
scalar barabasi_100nodes_network.client[61] 	hdistance[61].real 	1.8279245932207
scalar barabasi_100nodes_network.client[61] 	downloads[61].real 	1801960
scalar barabasi_100nodes_network.client[61] 	avg_time[61].real 	0
scalar barabasi_100nodes_network.client[62] 	hdistance[62].real 	1.6997642112787
scalar barabasi_100nodes_network.client[62] 	downloads[62].real 	1802037
scalar barabasi_100nodes_network.client[62] 	avg_time[62].real 	0
scalar barabasi_100nodes_network.client[63] 	hdistance[63].real 	2.2994221516859
scalar barabasi_100nodes_network.client[63] 	downloads[63].real 	1798915
scalar barabasi_100nodes_network.client[63] 	avg_time[63].real 	0
scalar barabasi_100nodes_network.client[64] 	hdistance[64].real 	1.9477521101733
scalar barabasi_100nodes_network.client[64] 	downloads[64].real 	1800800
scalar barabasi_100nodes_network.client[64] 	avg_time[64].real 	0
scalar barabasi_100nodes_network.client[65] 	hdistance[65].real 	2.0192333233858
scalar barabasi_100nodes_network.client[65] 	downloads[65].real 	1799481
scalar barabasi_100nodes_network.client[65] 	avg_time[65].real 	0
scalar barabasi_100nodes_network.client[66] 	hdistance[66].real 	1.8276602904397
scalar barabasi_100nodes_network.client[66] 	downloads[66].real 	1800856
scalar barabasi_100nodes_network.client[66] 	avg_time[66].real 	0
scalar barabasi_100nodes_network.client[67] 	hdistance[67].real 	1.9447088707352
scalar barabasi_100nodes_network.client[67] 	downloads[67].real 	1796762
scalar barabasi_100nodes_network.client[67] 	avg_time[67].real 	0
scalar barabasi_100nodes_network.client[68] 	hdistance[68].real 	1.845177106997
scalar barabasi_100nodes_network.client[68] 	downloads[68].real 	1801284
scalar barabasi_100nodes_network.client[68] 	avg_time[68].real 	0
scalar barabasi_100nodes_network.client[69] 	hdistance[69].real 	1.9445120122622
scalar barabasi_100nodes_network.client[69] 	downloads[69].real 	1800660
scalar barabasi_100nodes_network.client[69] 	avg_time[69].real 	0
scalar barabasi_100nodes_network.client[70] 	hdistance[70].real 	2.2978329004757
scalar barabasi_100nodes_network.client[70] 	downloads[70].real 	1802363
scalar barabasi_100nodes_network.client[70] 	avg_time[70].real 	0
scalar barabasi_100nodes_network.client[71] 	hdistance[71].real 	1.7135708164143
scalar barabasi_100nodes_network.client[71] 	downloads[71].real 	1799258
scalar barabasi_100nodes_network.client[71] 	avg_time[71].real 	0
scalar barabasi_100nodes_network.client[72] 	hdistance[72].real 	1.7780799933362
scalar barabasi_100nodes_network.client[72] 	downloads[72].real 	1800775
scalar barabasi_100nodes_network.client[72] 	avg_time[72].real 	0
scalar barabasi_100nodes_network.client[73] 	hdistance[73].real 	1.2836695258087
scalar barabasi_100nodes_network.client[73] 	downloads[73].real 	1798325
scalar barabasi_100nodes_network.client[73] 	avg_time[73].real 	0
scalar barabasi_100nodes_network.client[74] 	hdistance[74].real 	1.3741005796912
scalar barabasi_100nodes_network.client[74] 	downloads[74].real 	1801994
scalar barabasi_100nodes_network.client[74] 	avg_time[74].real 	0
scalar barabasi_100nodes_network.client[75] 	hdistance[75].real 	1.9555710283962
scalar barabasi_100nodes_network.client[75] 	downloads[75].real 	1799569
scalar barabasi_100nodes_network.client[75] 	avg_time[75].real 	0
scalar barabasi_100nodes_network.client[76] 	hdistance[76].real 	1.5321201686819
scalar barabasi_100nodes_network.client[76] 	downloads[76].real 	1801734
scalar barabasi_100nodes_network.client[76] 	avg_time[76].real 	0
scalar barabasi_100nodes_network.client[77] 	hdistance[77].real 	1.638370259223
scalar barabasi_100nodes_network.client[77] 	downloads[77].real 	1802078
scalar barabasi_100nodes_network.client[77] 	avg_time[77].real 	0
scalar barabasi_100nodes_network.client[78] 	hdistance[78].real 	2.0458870835988
scalar barabasi_100nodes_network.client[78] 	downloads[78].real 	1799526
scalar barabasi_100nodes_network.client[78] 	avg_time[78].real 	0
scalar barabasi_100nodes_network.client[79] 	hdistance[79].real 	1.6311941159023
scalar barabasi_100nodes_network.client[79] 	downloads[79].real 	1800378
scalar barabasi_100nodes_network.client[79] 	avg_time[79].real 	0
scalar barabasi_100nodes_network.client[80] 	hdistance[80].real 	2.2979007253495
scalar barabasi_100nodes_network.client[80] 	downloads[80].real 	1797478
scalar barabasi_100nodes_network.client[80] 	avg_time[80].real 	0
scalar barabasi_100nodes_network.client[81] 	hdistance[81].real 	1.8516136383216
scalar barabasi_100nodes_network.client[81] 	downloads[81].real 	1799195
scalar barabasi_100nodes_network.client[81] 	avg_time[81].real 	0
scalar barabasi_100nodes_network.client[82] 	hdistance[82].real 	2.1633892164829
scalar barabasi_100nodes_network.client[82] 	downloads[82].real 	1800841
scalar barabasi_100nodes_network.client[82] 	avg_time[82].real 	0
scalar barabasi_100nodes_network.client[83] 	hdistance[83].real 	2.2885606473555
scalar barabasi_100nodes_network.client[83] 	downloads[83].real 	1799691
scalar barabasi_100nodes_network.client[83] 	avg_time[83].real 	0
scalar barabasi_100nodes_network.client[84] 	hdistance[84].real 	2.0216940080357
scalar barabasi_100nodes_network.client[84] 	downloads[84].real 	1798008
scalar barabasi_100nodes_network.client[84] 	avg_time[84].real 	0
scalar barabasi_100nodes_network.client[85] 	hdistance[85].real 	1.6812576147812
scalar barabasi_100nodes_network.client[85] 	downloads[85].real 	1800774
scalar barabasi_100nodes_network.client[85] 	avg_time[85].real 	0
scalar barabasi_100nodes_network.client[86] 	hdistance[86].real 	2.2865515756726
scalar barabasi_100nodes_network.client[86] 	downloads[86].real 	1800025
scalar barabasi_100nodes_network.client[86] 	avg_time[86].real 	0
scalar barabasi_100nodes_network.client[87] 	hdistance[87].real 	2.2928721318242
scalar barabasi_100nodes_network.client[87] 	downloads[87].real 	1802278
scalar barabasi_100nodes_network.client[87] 	avg_time[87].real 	0
scalar barabasi_100nodes_network.client[88] 	hdistance[88].real 	2.028918405356
scalar barabasi_100nodes_network.client[88] 	downloads[88].real 	1801932
scalar barabasi_100nodes_network.client[88] 	avg_time[88].real 	0
scalar barabasi_100nodes_network.client[89] 	hdistance[89].real 	2.2935488674017
scalar barabasi_100nodes_network.client[89] 	downloads[89].real 	1799932
scalar barabasi_100nodes_network.client[89] 	avg_time[89].real 	0
scalar barabasi_100nodes_network.client[90] 	hdistance[90].real 	1.610858889404
scalar barabasi_100nodes_network.client[90] 	downloads[90].real 	1801105
scalar barabasi_100nodes_network.client[90] 	avg_time[90].real 	0
scalar barabasi_100nodes_network.client[91] 	hdistance[91].real 	1.952528930439
scalar barabasi_100nodes_network.client[91] 	downloads[91].real 	1797242
scalar barabasi_100nodes_network.client[91] 	avg_time[91].real 	0
scalar barabasi_100nodes_network.client[92] 	hdistance[92].real 	2.3068083989182
scalar barabasi_100nodes_network.client[92] 	downloads[92].real 	1801613
scalar barabasi_100nodes_network.client[92] 	avg_time[92].real 	0
scalar barabasi_100nodes_network.client[93] 	hdistance[93].real 	1.3733001208803
scalar barabasi_100nodes_network.client[93] 	downloads[93].real 	1800128
scalar barabasi_100nodes_network.client[93] 	avg_time[93].real 	0
scalar barabasi_100nodes_network.client[94] 	hdistance[94].real 	1.7135805625888
scalar barabasi_100nodes_network.client[94] 	downloads[94].real 	1799005
scalar barabasi_100nodes_network.client[94] 	avg_time[94].real 	0
scalar barabasi_100nodes_network.client[95] 	hdistance[95].real 	1.7243746167229
scalar barabasi_100nodes_network.client[95] 	downloads[95].real 	1801895
scalar barabasi_100nodes_network.client[95] 	avg_time[95].real 	0
scalar barabasi_100nodes_network.client[96] 	hdistance[96].real 	1.8503422678579
scalar barabasi_100nodes_network.client[96] 	downloads[96].real 	1799760
scalar barabasi_100nodes_network.client[96] 	avg_time[96].real 	0
scalar barabasi_100nodes_network.client[97] 	hdistance[97].real 	2.2797992255494
scalar barabasi_100nodes_network.client[97] 	downloads[97].real 	1798436
scalar barabasi_100nodes_network.client[97] 	avg_time[97].real 	0
scalar barabasi_100nodes_network.client[98] 	hdistance[98].real 	2.1753225078159
scalar barabasi_100nodes_network.client[98] 	downloads[98].real 	1800499
scalar barabasi_100nodes_network.client[98] 	avg_time[98].real 	0
scalar barabasi_100nodes_network.client[99] 	hdistance[99].real 	2.0290228740072
scalar barabasi_100nodes_network.client[99] 	downloads[99].real 	1801958
scalar barabasi_100nodes_network.client[99] 	avg_time[99].real 	0
