version 2
run General-13-20141007-10:53:28-8402
attr D costaware0.005
attr F nrr
attr R lru
attr a 1
attr configname General
attr csize 1e3
attr ctlg 1e5
attr datetime 20141007-10:53:28
attr experiment General
attr inifile omnetpp.ini
attr iterationvars "$net=abilene_cost, $rep=1, $priceratiovalue=10, $weights=0.333_0.333_0.334, $lambda=100, $a=1, $ctlg=1e5, $F=nrr, $ttl=10, $D=costaware0.005, $xi=1, $R=lru, $csize=1e3, $pricebits=0, $window=60, $variance=0.05, $mytime=1800"
attr iterationvars2 "$net=abilene_cost, $rep=1, $priceratiovalue=10, $weights=0.333_0.333_0.334, $lambda=100, $a=1, $ctlg=1e5, $F=nrr, $ttl=10, $D=costaware0.005, $xi=1, $R=lru, $csize=1e3, $pricebits=0, $window=60, $variance=0.05, $mytime=1800, $repetition=0"
attr lambda 100
attr measurement "$net=abilene_cost, $rep=1, $priceratiovalue=10, $weights=0.333_0.333_0.334, $lambda=100, $a=1, $ctlg=1e5, $F=nrr, $ttl=10, $D=costaware0.005, $xi=1, $R=lru, $csize=1e3, $pricebits=0, $window=60, $variance=0.05, $mytime=1800"
attr mytime 1800
attr net abilene_cost
attr network networks.${net=abilene_cost,geant_cost}_network
attr pricebits 0
attr priceratiovalue 10
attr processid 8402
attr rep 1
attr repetition 0
attr replication #0
attr resultdir results
attr runnumber 13
attr seedset 1
attr ttl 10
attr variance 0.05
attr weights 0.333_0.333_0.334
attr window 60
attr xi 1

scalar . 	a 	1
scalar . 	csize 	1e3
scalar . 	ctlg 	1e5
scalar . 	lambda 	100
scalar . 	mytime 	1800
scalar . 	pricebits 	0
scalar . 	priceratiovalue 	10
scalar . 	rep 	1
scalar . 	ttl 	10
scalar . 	variance 	0.05
scalar . 	window 	60
scalar . 	xi 	1
scalar abilene_cost_network.content_distribution 	repo-0 	10
scalar abilene_cost_network.content_distribution 	repo-1 	7
scalar abilene_cost_network.content_distribution 	repo-2 	5
scalar abilene_cost_network.content_distribution 	client-0 	8
scalar abilene_cost_network.content_distribution 	client-1 	7
scalar abilene_cost_network.content_distribution 	client-2 	2
scalar abilene_cost_network.content_distribution 	repo-0_card 	33397
scalar abilene_cost_network.content_distribution 	repo-0_price 	0
scalar abilene_cost_network.content_distribution 	repo-1_card 	33041
scalar abilene_cost_network.content_distribution 	repo-1_price 	10
scalar abilene_cost_network.content_distribution 	repo-2_card 	33562
scalar abilene_cost_network.content_distribution 	repo-2_price 	1
scalar abilene_cost_network.statistics 	repo_popularity[0] 	0.36106327575467
scalar abilene_cost_network.statistics 	repo_popularity[1] 	0.3490006524958
scalar abilene_cost_network.statistics 	repo_popularity[2] 	0.28993607174955
scalar abilene_cost_network.statistics 	stabilization_time 	36060
scalar abilene_cost_network.statistics 	p_hit 	0.12642091929898
scalar abilene_cost_network.statistics 	interests 	133924.18181818
scalar abilene_cost_network.statistics 	data 	84847.181818182
scalar abilene_cost_network.statistics 	hdistance 	2.4044091149545
scalar abilene_cost_network.statistics 	avg_time 	0.011821169189
scalar abilene_cost_network.statistics 	downloads 	534446
scalar abilene_cost_network.statistics 	total_cost 	902903
scalar abilene_cost_network.statistics 	total_replicas 	100000
scalar abilene_cost_network.statistics 	inner_hit 	0.35196820632955
scalar abilene_cost_network.node[0].core_layer 	interests[0] 	0
scalar abilene_cost_network.node[0].core_layer 	data[0] 	0
scalar abilene_cost_network.node[0].core_layer 	repo_int[0] 	346338
scalar abilene_cost_network.node[0].content_store 	p_hit[0] 	-nan
scalar abilene_cost_network.node[0].content_store 	hits[0] 	0
scalar abilene_cost_network.node[0].content_store 	misses[0] 	0
scalar abilene_cost_network.node[0].content_store 	decision_yes[0] 	0
scalar abilene_cost_network.node[0].content_store 	decision_no[0] 	0
scalar abilene_cost_network.node[0].content_store 	decision_ratio[0] 	0
scalar abilene_cost_network.node[0].content_store 	correction_factor[0] 	0.0013612850530901
scalar abilene_cost_network.node[0].content_store 	kappa[0] 	1
scalar abilene_cost_network.node[1].core_layer 	interests[1] 	64393
scalar abilene_cost_network.node[1].core_layer 	data[1] 	64393
scalar abilene_cost_network.node[1].content_store 	p_hit[1] 	0
scalar abilene_cost_network.node[1].content_store 	hits[1] 	0
scalar abilene_cost_network.node[1].content_store 	misses[1] 	64393
scalar abilene_cost_network.node[1].content_store 	decision_yes[1] 	0
scalar abilene_cost_network.node[1].content_store 	decision_no[1] 	64393
scalar abilene_cost_network.node[1].content_store 	decision_ratio[1] 	0
scalar abilene_cost_network.node[1].content_store 	correction_factor[1] 	0.0013612850530901
scalar abilene_cost_network.node[1].content_store 	kappa[1] 	1
scalar abilene_cost_network.node[2].core_layer 	interests[2] 	195145
scalar abilene_cost_network.node[2].core_layer 	data[2] 	180125
scalar abilene_cost_network.node[2].content_store 	p_hit[2] 	0.066166184119501
scalar abilene_cost_network.node[2].content_store 	hits[2] 	12912
scalar abilene_cost_network.node[2].content_store 	misses[2] 	182233
scalar abilene_cost_network.node[2].content_store 	decision_yes[2] 	371
scalar abilene_cost_network.node[2].content_store 	decision_no[2] 	179754
scalar abilene_cost_network.node[2].content_store 	decision_ratio[2] 	0.002059680777238
scalar abilene_cost_network.node[2].content_store 	correction_factor[2] 	0.0013612850530901
scalar abilene_cost_network.node[2].content_store 	kappa[2] 	1
scalar abilene_cost_network.node[3].core_layer 	interests[3] 	113711
scalar abilene_cost_network.node[3].core_layer 	data[3] 	96807
scalar abilene_cost_network.node[3].content_store 	p_hit[3] 	0.14860479636974
scalar abilene_cost_network.node[3].content_store 	hits[3] 	16898
scalar abilene_cost_network.node[3].content_store 	misses[3] 	96813
scalar abilene_cost_network.node[3].content_store 	decision_yes[3] 	381
scalar abilene_cost_network.node[3].content_store 	decision_no[3] 	96426
scalar abilene_cost_network.node[3].content_store 	decision_ratio[3] 	0.0039356658092907
scalar abilene_cost_network.node[3].content_store 	correction_factor[3] 	0.0013612850530901
scalar abilene_cost_network.node[3].content_store 	kappa[3] 	1
scalar abilene_cost_network.node[4].core_layer 	interests[4] 	40989
scalar abilene_cost_network.node[4].core_layer 	data[4] 	29540
scalar abilene_cost_network.node[4].content_store 	p_hit[4] 	0.27931884164044
scalar abilene_cost_network.node[4].content_store 	hits[4] 	11449
scalar abilene_cost_network.node[4].content_store 	misses[4] 	29540
scalar abilene_cost_network.node[4].content_store 	decision_yes[4] 	35
scalar abilene_cost_network.node[4].content_store 	decision_no[4] 	29505
scalar abilene_cost_network.node[4].content_store 	decision_ratio[4] 	0.0011848341232227
scalar abilene_cost_network.node[4].content_store 	correction_factor[4] 	0.0013612850530901
scalar abilene_cost_network.node[4].content_store 	kappa[4] 	1
scalar abilene_cost_network.node[5].core_layer 	interests[5] 	87752
scalar abilene_cost_network.node[5].core_layer 	repo_load[5] 	73263
scalar abilene_cost_network.node[5].core_layer 	data[5] 	0
scalar abilene_cost_network.node[5].content_store 	p_hit[5] 	0.1651130458565
scalar abilene_cost_network.node[5].content_store 	hits[5] 	14489
scalar abilene_cost_network.node[5].content_store 	misses[5] 	73263
scalar abilene_cost_network.node[5].content_store 	decision_yes[5] 	82
scalar abilene_cost_network.node[5].content_store 	decision_no[5] 	73181
scalar abilene_cost_network.node[5].content_store 	decision_ratio[5] 	0.0011192552857513
scalar abilene_cost_network.node[5].content_store 	correction_factor[5] 	0.0013612850530901
scalar abilene_cost_network.node[5].content_store 	kappa[5] 	1
scalar abilene_cost_network.node[6].core_layer 	interests[6] 	71576
scalar abilene_cost_network.node[6].core_layer 	data[6] 	58212
scalar abilene_cost_network.node[6].content_store 	p_hit[6] 	0.1867106292612
scalar abilene_cost_network.node[6].content_store 	hits[6] 	13364
scalar abilene_cost_network.node[6].content_store 	misses[6] 	58212
scalar abilene_cost_network.node[6].content_store 	decision_yes[6] 	70
scalar abilene_cost_network.node[6].content_store 	decision_no[6] 	58142
scalar abilene_cost_network.node[6].content_store 	decision_ratio[6] 	0.0012025012025012
scalar abilene_cost_network.node[6].content_store 	correction_factor[6] 	0.0013612850530901
scalar abilene_cost_network.node[6].content_store 	kappa[6] 	1
scalar abilene_cost_network.node[7].core_layer 	interests[7] 	325086
scalar abilene_cost_network.node[7].core_layer 	repo_load[7] 	82964
scalar abilene_cost_network.node[7].core_layer 	data[7] 	148647
scalar abilene_cost_network.node[7].content_store 	p_hit[7] 	0.28318660292969
scalar abilene_cost_network.node[7].content_store 	hits[7] 	92060
scalar abilene_cost_network.node[7].content_store 	misses[7] 	233026
scalar abilene_cost_network.node[7].content_store 	decision_yes[7] 	1141
scalar abilene_cost_network.node[7].content_store 	decision_no[7] 	230470
scalar abilene_cost_network.node[7].content_store 	decision_ratio[7] 	0.0049263636010379
scalar abilene_cost_network.node[7].content_store 	correction_factor[7] 	0.0013612850530901
scalar abilene_cost_network.node[7].content_store 	kappa[7] 	1
scalar abilene_cost_network.node[8].core_layer 	interests[8] 	258686
scalar abilene_cost_network.node[8].core_layer 	data[8] 	229878
scalar abilene_cost_network.node[8].content_store 	p_hit[8] 	0.096901262534501
scalar abilene_cost_network.node[8].content_store 	hits[8] 	25067
scalar abilene_cost_network.node[8].content_store 	misses[8] 	233619
scalar abilene_cost_network.node[8].content_store 	decision_yes[8] 	392
scalar abilene_cost_network.node[8].content_store 	decision_no[8] 	229486
scalar abilene_cost_network.node[8].content_store 	decision_ratio[8] 	0.0017052523512472
scalar abilene_cost_network.node[8].content_store 	correction_factor[8] 	0.0013612850530901
scalar abilene_cost_network.node[8].content_store 	kappa[8] 	1
scalar abilene_cost_network.node[9].core_layer 	interests[9] 	125717
scalar abilene_cost_network.node[9].core_layer 	data[9] 	125717
scalar abilene_cost_network.node[9].content_store 	p_hit[9] 	0
scalar abilene_cost_network.node[9].content_store 	hits[9] 	0
scalar abilene_cost_network.node[9].content_store 	misses[9] 	125717
scalar abilene_cost_network.node[9].content_store 	decision_yes[9] 	0
scalar abilene_cost_network.node[9].content_store 	decision_no[9] 	125717
scalar abilene_cost_network.node[9].content_store 	decision_ratio[9] 	0
scalar abilene_cost_network.node[9].content_store 	correction_factor[9] 	0.0013612850530901
scalar abilene_cost_network.node[9].content_store 	kappa[9] 	1
scalar abilene_cost_network.node[10].core_layer 	interests[10] 	190111
scalar abilene_cost_network.node[10].core_layer 	repo_load[10] 	190111
scalar abilene_cost_network.node[10].core_layer 	data[10] 	0
scalar abilene_cost_network.node[10].content_store 	p_hit[10] 	0
scalar abilene_cost_network.node[10].content_store 	hits[10] 	0
scalar abilene_cost_network.node[10].content_store 	misses[10] 	190111
scalar abilene_cost_network.node[10].content_store 	decision_yes[10] 	0
scalar abilene_cost_network.node[10].content_store 	decision_no[10] 	190111
scalar abilene_cost_network.node[10].content_store 	decision_ratio[10] 	0
scalar abilene_cost_network.node[10].content_store 	correction_factor[10] 	0.0013612850530901
scalar abilene_cost_network.node[10].content_store 	kappa[10] 	1
scalar abilene_cost_network.client[2] 	hdistance[2] 	2.6456168040701
scalar abilene_cost_network.client[2] 	downloads[2] 	178671
scalar abilene_cost_network.client[2] 	avg_time[2] 	0.011892194555
scalar abilene_cost_network.client[7] 	hdistance[7] 	2.1995227400337
scalar abilene_cost_network.client[7] 	downloads[7] 	178100
scalar abilene_cost_network.client[7] 	avg_time[7] 	0.011083831162
scalar abilene_cost_network.client[8] 	hdistance[8] 	2.3680878007598
scalar abilene_cost_network.client[8] 	downloads[8] 	177675
scalar abilene_cost_network.client[8] 	avg_time[8] 	0.01248748185
