version 2
run General-13-20141007-11:47:15-22086
attr D costaware0.005
attr F nrr
attr R lru
attr a 1
attr configname General
attr csize 1e3
attr ctlg 1e5
attr datetime 20141007-11:47:15
attr experiment General
attr inifile omnetpp.ini
attr iterationvars "$net=abilene_cost, $rep=3, $priceratiovalue=10, $weights=0.333_0.333_0.334, $lambda=100, $a=1, $ctlg=1e5, $F=nrr, $ttl=10, $D=costaware0.005, $xi=1, $R=lru, $csize=1e3, $pricebits=0, $window=60, $variance=0.05, $mytime=1800"
attr iterationvars2 "$net=abilene_cost, $rep=3, $priceratiovalue=10, $weights=0.333_0.333_0.334, $lambda=100, $a=1, $ctlg=1e5, $F=nrr, $ttl=10, $D=costaware0.005, $xi=1, $R=lru, $csize=1e3, $pricebits=0, $window=60, $variance=0.05, $mytime=1800, $repetition=0"
attr lambda 100
attr measurement "$net=abilene_cost, $rep=3, $priceratiovalue=10, $weights=0.333_0.333_0.334, $lambda=100, $a=1, $ctlg=1e5, $F=nrr, $ttl=10, $D=costaware0.005, $xi=1, $R=lru, $csize=1e3, $pricebits=0, $window=60, $variance=0.05, $mytime=1800"
attr mytime 1800
attr net abilene_cost
attr network networks.${net=abilene_cost,geant_cost}_network
attr pricebits 0
attr priceratiovalue 10
attr processid 22086
attr rep 3
attr repetition 0
attr replication #0
attr resultdir results
attr runnumber 13
attr seedset 3
attr ttl 10
attr variance 0.05
attr weights 0.333_0.333_0.334
attr window 60
attr xi 1

scalar . 	a 	1
scalar . 	csize 	1e3
scalar . 	ctlg 	1e5
scalar . 	lambda 	100
scalar . 	mytime 	1800
scalar . 	pricebits 	0
scalar . 	priceratiovalue 	10
scalar . 	rep 	3
scalar . 	ttl 	10
scalar . 	variance 	0.05
scalar . 	window 	60
scalar . 	xi 	1
scalar abilene_cost_network.content_distribution 	repo-0 	9
scalar abilene_cost_network.content_distribution 	repo-1 	4
scalar abilene_cost_network.content_distribution 	repo-2 	0
scalar abilene_cost_network.content_distribution 	client-0 	9
scalar abilene_cost_network.content_distribution 	client-1 	0
scalar abilene_cost_network.content_distribution 	client-2 	1
scalar abilene_cost_network.content_distribution 	repo-0_card 	33498
scalar abilene_cost_network.content_distribution 	repo-0_price 	0
scalar abilene_cost_network.content_distribution 	repo-1_card 	33168
scalar abilene_cost_network.content_distribution 	repo-1_price 	10
scalar abilene_cost_network.content_distribution 	repo-2_card 	33334
scalar abilene_cost_network.content_distribution 	repo-2_price 	1
scalar abilene_cost_network.statistics 	repo_popularity[0] 	0.34820484875244
scalar abilene_cost_network.statistics 	repo_popularity[1] 	0.25519349814637
scalar abilene_cost_network.statistics 	repo_popularity[2] 	0.3966016531012
scalar abilene_cost_network.statistics 	stabilization_time 	36060
scalar abilene_cost_network.statistics 	p_hit 	0.14503293185183
scalar abilene_cost_network.statistics 	interests 	123919.81818182
scalar abilene_cost_network.statistics 	data 	74920.727272727
scalar abilene_cost_network.statistics 	hdistance 	2.1718898524363
scalar abilene_cost_network.statistics 	avg_time 	0.010053243658
scalar abilene_cost_network.statistics 	downloads 	534960
scalar abilene_cost_network.statistics 	total_cost 	761867
scalar abilene_cost_network.statistics 	total_replicas 	100000
scalar abilene_cost_network.statistics 	inner_hit 	0.37016973231643
scalar abilene_cost_network.node[0].core_layer 	interests[0] 	300194
scalar abilene_cost_network.node[0].core_layer 	repo_load[0] 	83217
scalar abilene_cost_network.node[0].core_layer 	data[0] 	106254
scalar abilene_cost_network.node[0].core_layer 	repo_int[0] 	336934
scalar abilene_cost_network.node[0].content_store 	p_hit[0] 	0.36728582183521
scalar abilene_cost_network.node[0].content_store 	hits[0] 	110257
scalar abilene_cost_network.node[0].content_store 	misses[0] 	189937
scalar abilene_cost_network.node[0].content_store 	decision_yes[0] 	448
scalar abilene_cost_network.node[0].content_store 	decision_no[0] 	189023
scalar abilene_cost_network.node[0].content_store 	decision_ratio[0] 	0.0023644779412153
scalar abilene_cost_network.node[0].content_store 	correction_factor[0] 	0.0013612850530901
scalar abilene_cost_network.node[0].content_store 	kappa[0] 	1
scalar abilene_cost_network.node[1].core_layer 	interests[1] 	224241
scalar abilene_cost_network.node[1].core_layer 	data[1] 	212767
scalar abilene_cost_network.node[1].content_store 	p_hit[1] 	0.041169991214809
scalar abilene_cost_network.node[1].content_store 	hits[1] 	9232
scalar abilene_cost_network.node[1].content_store 	misses[1] 	215009
scalar abilene_cost_network.node[1].content_store 	decision_yes[1] 	669
scalar abilene_cost_network.node[1].content_store 	decision_no[1] 	212098
scalar abilene_cost_network.node[1].content_store 	decision_ratio[1] 	0.0031442845930055
scalar abilene_cost_network.node[1].content_store 	correction_factor[1] 	0.0013612850530901
scalar abilene_cost_network.node[1].content_store 	kappa[1] 	1
scalar abilene_cost_network.node[2].core_layer 	interests[2] 	113117
scalar abilene_cost_network.node[2].core_layer 	data[2] 	101544
scalar abilene_cost_network.node[2].content_store 	p_hit[2] 	0.10211550872106
scalar abilene_cost_network.node[2].content_store 	hits[2] 	11551
scalar abilene_cost_network.node[2].content_store 	misses[2] 	101566
scalar abilene_cost_network.node[2].content_store 	decision_yes[2] 	904
scalar abilene_cost_network.node[2].content_store 	decision_no[2] 	100640
scalar abilene_cost_network.node[2].content_store 	decision_ratio[2] 	0.0089025447096825
scalar abilene_cost_network.node[2].content_store 	correction_factor[2] 	0.0013612850530901
scalar abilene_cost_network.node[2].content_store 	kappa[2] 	1
scalar abilene_cost_network.node[3].core_layer 	interests[3] 	93811
scalar abilene_cost_network.node[3].core_layer 	data[3] 	77544
scalar abilene_cost_network.node[3].content_store 	p_hit[3] 	0.17341249960026
scalar abilene_cost_network.node[3].content_store 	hits[3] 	16268
scalar abilene_cost_network.node[3].content_store 	misses[3] 	77543
scalar abilene_cost_network.node[3].content_store 	decision_yes[3] 	872
scalar abilene_cost_network.node[3].content_store 	decision_no[3] 	76672
scalar abilene_cost_network.node[3].content_store 	decision_ratio[3] 	0.011245228515424
scalar abilene_cost_network.node[3].content_store 	correction_factor[3] 	0.0013612850530901
scalar abilene_cost_network.node[3].content_store 	kappa[3] 	1
scalar abilene_cost_network.node[4].core_layer 	interests[4] 	77544
scalar abilene_cost_network.node[4].core_layer 	repo_load[4] 	67865
scalar abilene_cost_network.node[4].core_layer 	data[4] 	0
scalar abilene_cost_network.node[4].content_store 	p_hit[4] 	0.12481945734035
scalar abilene_cost_network.node[4].content_store 	hits[4] 	9679
scalar abilene_cost_network.node[4].content_store 	misses[4] 	67865
scalar abilene_cost_network.node[4].content_store 	decision_yes[4] 	910
scalar abilene_cost_network.node[4].content_store 	decision_no[4] 	66955
scalar abilene_cost_network.node[4].content_store 	decision_ratio[4] 	0.013408973697782
scalar abilene_cost_network.node[4].content_store 	correction_factor[4] 	0.0013612850530901
scalar abilene_cost_network.node[4].content_store 	kappa[4] 	1
scalar abilene_cost_network.node[5].core_layer 	interests[5] 	0
scalar abilene_cost_network.node[5].core_layer 	data[5] 	0
scalar abilene_cost_network.node[5].content_store 	p_hit[5] 	-nan
scalar abilene_cost_network.node[5].content_store 	hits[5] 	0
scalar abilene_cost_network.node[5].content_store 	misses[5] 	0
scalar abilene_cost_network.node[5].content_store 	decision_yes[5] 	0
scalar abilene_cost_network.node[5].content_store 	decision_no[5] 	0
scalar abilene_cost_network.node[5].content_store 	decision_ratio[5] 	0
scalar abilene_cost_network.node[5].content_store 	correction_factor[5] 	0.0013612850530901
scalar abilene_cost_network.node[5].content_store 	kappa[5] 	1
scalar abilene_cost_network.node[6].core_layer 	interests[6] 	0
scalar abilene_cost_network.node[6].core_layer 	data[6] 	0
scalar abilene_cost_network.node[6].content_store 	p_hit[6] 	-nan
scalar abilene_cost_network.node[6].content_store 	hits[6] 	0
scalar abilene_cost_network.node[6].content_store 	misses[6] 	0
scalar abilene_cost_network.node[6].content_store 	decision_yes[6] 	0
scalar abilene_cost_network.node[6].content_store 	decision_no[6] 	0
scalar abilene_cost_network.node[6].content_store 	decision_ratio[6] 	0
scalar abilene_cost_network.node[6].content_store 	correction_factor[6] 	0.0013612850530901
scalar abilene_cost_network.node[6].content_store 	kappa[6] 	1
scalar abilene_cost_network.node[7].core_layer 	interests[7] 	0
scalar abilene_cost_network.node[7].core_layer 	data[7] 	0
scalar abilene_cost_network.node[7].content_store 	p_hit[7] 	-nan
scalar abilene_cost_network.node[7].content_store 	hits[7] 	0
scalar abilene_cost_network.node[7].content_store 	misses[7] 	0
scalar abilene_cost_network.node[7].content_store 	decision_yes[7] 	0
scalar abilene_cost_network.node[7].content_store 	decision_no[7] 	0
scalar abilene_cost_network.node[7].content_store 	decision_ratio[7] 	0
scalar abilene_cost_network.node[7].content_store 	correction_factor[7] 	0.0013612850530901
scalar abilene_cost_network.node[7].content_store 	kappa[7] 	1
scalar abilene_cost_network.node[8].core_layer 	interests[8] 	46813
scalar abilene_cost_network.node[8].core_layer 	data[8] 	35145
scalar abilene_cost_network.node[8].content_store 	p_hit[8] 	0.24926836562493
scalar abilene_cost_network.node[8].content_store 	hits[8] 	11669
scalar abilene_cost_network.node[8].content_store 	misses[8] 	35144
scalar abilene_cost_network.node[8].content_store 	decision_yes[8] 	281
scalar abilene_cost_network.node[8].content_store 	decision_no[8] 	34864
scalar abilene_cost_network.node[8].content_store 	decision_ratio[8] 	0.0079954474320672
scalar abilene_cost_network.node[8].content_store 	correction_factor[8] 	0.0013612850530901
scalar abilene_cost_network.node[8].content_store 	kappa[8] 	1
scalar abilene_cost_network.node[9].core_layer 	interests[9] 	310531
scalar abilene_cost_network.node[9].core_layer 	repo_load[9] 	185852
scalar abilene_cost_network.node[9].core_layer 	data[9] 	101789
scalar abilene_cost_network.node[9].content_store 	p_hit[9] 	0.069268446628517
scalar abilene_cost_network.node[9].content_store 	hits[9] 	21510
scalar abilene_cost_network.node[9].content_store 	misses[9] 	289021
scalar abilene_cost_network.node[9].content_store 	decision_yes[9] 	347
scalar abilene_cost_network.node[9].content_store 	decision_no[9] 	287294
scalar abilene_cost_network.node[9].content_store 	decision_ratio[9] 	0.0012063648784422
scalar abilene_cost_network.node[9].content_store 	correction_factor[9] 	0.0013612850530901
scalar abilene_cost_network.node[9].content_store 	kappa[9] 	1
scalar abilene_cost_network.node[10].core_layer 	interests[10] 	196867
scalar abilene_cost_network.node[10].core_layer 	data[10] 	189085
scalar abilene_cost_network.node[10].content_store 	p_hit[10] 	0.038254252871228
scalar abilene_cost_network.node[10].content_store 	hits[10] 	7531
scalar abilene_cost_network.node[10].content_store 	misses[10] 	189336
scalar abilene_cost_network.node[10].content_store 	decision_yes[10] 	49
scalar abilene_cost_network.node[10].content_store 	decision_no[10] 	189036
scalar abilene_cost_network.node[10].content_store 	decision_ratio[10] 	0.00025914271359442
scalar abilene_cost_network.node[10].content_store 	correction_factor[10] 	0.0013612850530901
scalar abilene_cost_network.node[10].content_store 	kappa[10] 	1
scalar abilene_cost_network.client[0] 	hdistance[0] 	2.1581648070014
scalar abilene_cost_network.client[0] 	downloads[0] 	178706
scalar abilene_cost_network.client[0] 	avg_time[0] 	0.009067176157
scalar abilene_cost_network.client[1] 	hdistance[1] 	2.318126256851
scalar abilene_cost_network.client[1] 	downloads[1] 	177527
scalar abilene_cost_network.client[1] 	avg_time[1] 	0.01170932052
scalar abilene_cost_network.client[9] 	hdistance[9] 	2.0393784934565
scalar abilene_cost_network.client[9] 	downloads[9] 	178727
scalar abilene_cost_network.client[9] 	avg_time[9] 	0.009383234298
