version 2
run General-13-20141007-11:21:48-15340
attr D costaware0.005
attr F nrr
attr R lru
attr a 1
attr configname General
attr csize 1e3
attr ctlg 1e5
attr datetime 20141007-11:21:48
attr experiment General
attr inifile omnetpp.ini
attr iterationvars "$net=abilene_cost, $rep=2, $priceratiovalue=10, $weights=0.333_0.333_0.334, $lambda=100, $a=1, $ctlg=1e5, $F=nrr, $ttl=10, $D=costaware0.005, $xi=1, $R=lru, $csize=1e3, $pricebits=0, $window=60, $variance=0.05, $mytime=1800"
attr iterationvars2 "$net=abilene_cost, $rep=2, $priceratiovalue=10, $weights=0.333_0.333_0.334, $lambda=100, $a=1, $ctlg=1e5, $F=nrr, $ttl=10, $D=costaware0.005, $xi=1, $R=lru, $csize=1e3, $pricebits=0, $window=60, $variance=0.05, $mytime=1800, $repetition=0"
attr lambda 100
attr measurement "$net=abilene_cost, $rep=2, $priceratiovalue=10, $weights=0.333_0.333_0.334, $lambda=100, $a=1, $ctlg=1e5, $F=nrr, $ttl=10, $D=costaware0.005, $xi=1, $R=lru, $csize=1e3, $pricebits=0, $window=60, $variance=0.05, $mytime=1800"
attr mytime 1800
attr net abilene_cost
attr network networks.${net=abilene_cost,geant_cost}_network
attr pricebits 0
attr priceratiovalue 10
attr processid 15340
attr rep 2
attr repetition 0
attr replication #0
attr resultdir results
attr runnumber 13
attr seedset 2
attr ttl 10
attr variance 0.05
attr weights 0.333_0.333_0.334
attr window 60
attr xi 1

scalar . 	a 	1
scalar . 	csize 	1e3
scalar . 	ctlg 	1e5
scalar . 	lambda 	100
scalar . 	mytime 	1800
scalar . 	pricebits 	0
scalar . 	priceratiovalue 	10
scalar . 	rep 	2
scalar . 	ttl 	10
scalar . 	variance 	0.05
scalar . 	window 	60
scalar . 	xi 	1
scalar abilene_cost_network.content_distribution 	repo-0 	4
scalar abilene_cost_network.content_distribution 	repo-1 	9
scalar abilene_cost_network.content_distribution 	repo-2 	6
scalar abilene_cost_network.content_distribution 	client-0 	3
scalar abilene_cost_network.content_distribution 	client-1 	7
scalar abilene_cost_network.content_distribution 	client-2 	9
scalar abilene_cost_network.content_distribution 	repo-0_card 	33329
scalar abilene_cost_network.content_distribution 	repo-0_price 	1
scalar abilene_cost_network.content_distribution 	repo-1_card 	33052
scalar abilene_cost_network.content_distribution 	repo-1_price 	10
scalar abilene_cost_network.content_distribution 	repo-2_card 	33619
scalar abilene_cost_network.content_distribution 	repo-2_price 	0
scalar abilene_cost_network.statistics 	repo_popularity[0] 	0.33984204835506
scalar abilene_cost_network.statistics 	repo_popularity[1] 	0.39407385110283
scalar abilene_cost_network.statistics 	repo_popularity[2] 	0.26608410054213
scalar abilene_cost_network.statistics 	stabilization_time 	36060
scalar abilene_cost_network.statistics 	p_hit 	0.15872222322798
scalar abilene_cost_network.statistics 	interests 	130562
scalar abilene_cost_network.statistics 	data 	81478.818181818
scalar abilene_cost_network.statistics 	hdistance 	2.248042273701
scalar abilene_cost_network.statistics 	avg_time 	0.011675471444
scalar abilene_cost_network.statistics 	downloads 	535729
scalar abilene_cost_network.statistics 	total_cost 	926351
scalar abilene_cost_network.statistics 	total_replicas 	100000
scalar abilene_cost_network.statistics 	inner_hit 	0.42682960974672
scalar abilene_cost_network.node[0].core_layer 	interests[0] 	0
scalar abilene_cost_network.node[0].core_layer 	data[0] 	0
scalar abilene_cost_network.node[0].core_layer 	repo_int[0] 	307064
scalar abilene_cost_network.node[0].content_store 	p_hit[0] 	-nan
scalar abilene_cost_network.node[0].content_store 	hits[0] 	0
scalar abilene_cost_network.node[0].content_store 	misses[0] 	0
scalar abilene_cost_network.node[0].content_store 	decision_yes[0] 	0
scalar abilene_cost_network.node[0].content_store 	decision_no[0] 	0
scalar abilene_cost_network.node[0].content_store 	decision_ratio[0] 	0
scalar abilene_cost_network.node[0].content_store 	correction_factor[0] 	0.0013612850530901
scalar abilene_cost_network.node[0].content_store 	kappa[0] 	1
scalar abilene_cost_network.node[1].core_layer 	interests[1] 	0
scalar abilene_cost_network.node[1].core_layer 	data[1] 	0
scalar abilene_cost_network.node[1].content_store 	p_hit[1] 	-nan
scalar abilene_cost_network.node[1].content_store 	hits[1] 	0
scalar abilene_cost_network.node[1].content_store 	misses[1] 	0
scalar abilene_cost_network.node[1].content_store 	decision_yes[1] 	0
scalar abilene_cost_network.node[1].content_store 	decision_no[1] 	0
scalar abilene_cost_network.node[1].content_store 	decision_ratio[1] 	0
scalar abilene_cost_network.node[1].content_store 	correction_factor[1] 	0.0013612850530901
scalar abilene_cost_network.node[1].content_store 	kappa[1] 	1
scalar abilene_cost_network.node[2].core_layer 	interests[2] 	117585
scalar abilene_cost_network.node[2].core_layer 	data[2] 	103888
scalar abilene_cost_network.node[2].content_store 	p_hit[2] 	0.11647744185058
scalar abilene_cost_network.node[2].content_store 	hits[2] 	13696
scalar abilene_cost_network.node[2].content_store 	misses[2] 	103889
scalar abilene_cost_network.node[2].content_store 	decision_yes[2] 	403
scalar abilene_cost_network.node[2].content_store 	decision_no[2] 	103485
scalar abilene_cost_network.node[2].content_store 	decision_ratio[2] 	0.0038791775758509
scalar abilene_cost_network.node[2].content_store 	correction_factor[2] 	0.0013612850530901
scalar abilene_cost_network.node[2].content_store 	kappa[2] 	1
scalar abilene_cost_network.node[3].core_layer 	interests[3] 	291848
scalar abilene_cost_network.node[3].core_layer 	data[3] 	256375
scalar abilene_cost_network.node[3].content_store 	p_hit[3] 	0.11454935445849
scalar abilene_cost_network.node[3].content_store 	hits[3] 	33431
scalar abilene_cost_network.node[3].content_store 	misses[3] 	258417
scalar abilene_cost_network.node[3].content_store 	decision_yes[3] 	457
scalar abilene_cost_network.node[3].content_store 	decision_no[3] 	255918
scalar abilene_cost_network.node[3].content_store 	decision_ratio[3] 	0.0017825450999512
scalar abilene_cost_network.node[3].content_store 	correction_factor[3] 	0.0013612850530901
scalar abilene_cost_network.node[3].content_store 	kappa[3] 	1
scalar abilene_cost_network.node[4].core_layer 	interests[4] 	130617
scalar abilene_cost_network.node[4].core_layer 	repo_load[4] 	79741
scalar abilene_cost_network.node[4].core_layer 	data[4] 	0
scalar abilene_cost_network.node[4].content_store 	p_hit[4] 	0.38950519457651
scalar abilene_cost_network.node[4].content_store 	hits[4] 	50876
scalar abilene_cost_network.node[4].content_store 	misses[4] 	79741
scalar abilene_cost_network.node[4].content_store 	decision_yes[4] 	105
scalar abilene_cost_network.node[4].content_store 	decision_no[4] 	79636
scalar abilene_cost_network.node[4].content_store 	decision_ratio[4] 	0.0013167630202782
scalar abilene_cost_network.node[4].content_store 	correction_factor[4] 	0.0013612850530901
scalar abilene_cost_network.node[4].content_store 	kappa[4] 	1
scalar abilene_cost_network.node[5].core_layer 	interests[5] 	0
scalar abilene_cost_network.node[5].core_layer 	data[5] 	0
scalar abilene_cost_network.node[5].content_store 	p_hit[5] 	-nan
scalar abilene_cost_network.node[5].content_store 	hits[5] 	0
scalar abilene_cost_network.node[5].content_store 	misses[5] 	0
scalar abilene_cost_network.node[5].content_store 	decision_yes[5] 	0
scalar abilene_cost_network.node[5].content_store 	decision_no[5] 	0
scalar abilene_cost_network.node[5].content_store 	decision_ratio[5] 	0
scalar abilene_cost_network.node[5].content_store 	correction_factor[5] 	0.0013612850530901
scalar abilene_cost_network.node[5].content_store 	kappa[5] 	1
scalar abilene_cost_network.node[6].core_layer 	interests[6] 	142662
scalar abilene_cost_network.node[6].core_layer 	repo_load[6] 	142662
scalar abilene_cost_network.node[6].core_layer 	data[6] 	0
scalar abilene_cost_network.node[6].content_store 	p_hit[6] 	0
scalar abilene_cost_network.node[6].content_store 	hits[6] 	0
scalar abilene_cost_network.node[6].content_store 	misses[6] 	142662
scalar abilene_cost_network.node[6].content_store 	decision_yes[6] 	0
scalar abilene_cost_network.node[6].content_store 	decision_no[6] 	142662
scalar abilene_cost_network.node[6].content_store 	decision_ratio[6] 	0
scalar abilene_cost_network.node[6].content_store 	correction_factor[6] 	0.0013612850530901
scalar abilene_cost_network.node[6].content_store 	kappa[6] 	1
scalar abilene_cost_network.node[7].core_layer 	interests[7] 	289246
scalar abilene_cost_network.node[7].core_layer 	data[7] 	262251
scalar abilene_cost_network.node[7].content_store 	p_hit[7] 	0.088028875075196
scalar abilene_cost_network.node[7].content_store 	hits[7] 	25462
scalar abilene_cost_network.node[7].content_store 	misses[7] 	263784
scalar abilene_cost_network.node[7].content_store 	decision_yes[7] 	442
scalar abilene_cost_network.node[7].content_store 	decision_no[7] 	261809
scalar abilene_cost_network.node[7].content_store 	decision_ratio[7] 	0.0016854082539247
scalar abilene_cost_network.node[7].content_store 	correction_factor[7] 	0.0013612850530901
scalar abilene_cost_network.node[7].content_store 	kappa[7] 	1
scalar abilene_cost_network.node[8].core_layer 	interests[8] 	215176
scalar abilene_cost_network.node[8].core_layer 	data[8] 	170009
scalar abilene_cost_network.node[8].content_store 	p_hit[8] 	0.20922872439305
scalar abilene_cost_network.node[8].content_store 	hits[8] 	45021
scalar abilene_cost_network.node[8].content_store 	misses[8] 	170155
scalar abilene_cost_network.node[8].content_store 	decision_yes[8] 	717
scalar abilene_cost_network.node[8].content_store 	decision_no[8] 	169292
scalar abilene_cost_network.node[8].content_store 	decision_ratio[8] 	0.0042174237834468
scalar abilene_cost_network.node[8].content_store 	correction_factor[8] 	0.0013612850530901
scalar abilene_cost_network.node[8].content_store 	kappa[8] 	1
scalar abilene_cost_network.node[9].core_layer 	interests[9] 	249048
scalar abilene_cost_network.node[9].core_layer 	repo_load[9] 	84661
scalar abilene_cost_network.node[9].core_layer 	data[9] 	103744
scalar abilene_cost_network.node[9].content_store 	p_hit[9] 	0.23878127911085
scalar abilene_cost_network.node[9].content_store 	hits[9] 	59468
scalar abilene_cost_network.node[9].content_store 	misses[9] 	189580
scalar abilene_cost_network.node[9].content_store 	decision_yes[9] 	1151
scalar abilene_cost_network.node[9].content_store 	decision_no[9] 	187254
scalar abilene_cost_network.node[9].content_store 	decision_ratio[9] 	0.0061091796926833
scalar abilene_cost_network.node[9].content_store 	correction_factor[9] 	0.0013612850530901
scalar abilene_cost_network.node[9].content_store 	kappa[9] 	1
scalar abilene_cost_network.node[10].core_layer 	interests[10] 	0
scalar abilene_cost_network.node[10].core_layer 	data[10] 	0
scalar abilene_cost_network.node[10].content_store 	p_hit[10] 	-nan
scalar abilene_cost_network.node[10].content_store 	hits[10] 	0
scalar abilene_cost_network.node[10].content_store 	misses[10] 	0
scalar abilene_cost_network.node[10].content_store 	decision_yes[10] 	0
scalar abilene_cost_network.node[10].content_store 	decision_no[10] 	0
scalar abilene_cost_network.node[10].content_store 	decision_ratio[10] 	0
scalar abilene_cost_network.node[10].content_store 	correction_factor[10] 	0.0013612850530901
scalar abilene_cost_network.node[10].content_store 	kappa[10] 	1
scalar abilene_cost_network.client[3] 	hdistance[3] 	2.244774912845
scalar abilene_cost_network.client[3] 	downloads[3] 	178131
scalar abilene_cost_network.client[3] 	avg_time[3] 	0.010068022364
scalar abilene_cost_network.client[7] 	hdistance[7] 	1.9682583139639
scalar abilene_cost_network.client[7] 	downloads[7] 	178976
scalar abilene_cost_network.client[7] 	avg_time[7] 	0.009023373989
scalar abilene_cost_network.client[9] 	hdistance[9] 	2.5310935942941
scalar abilene_cost_network.client[9] 	downloads[9] 	178622
scalar abilene_cost_network.client[9] 	avg_time[9] 	0.015935017981
