version 2
run General-13-20141007-11:06:46-23697
attr D costaware0.005
attr F nrr
attr R lru
attr a 1
attr configname General
attr csize 1e3
attr ctlg 1e5
attr datetime 20141007-11:06:46
attr experiment General
attr inifile omnetpp.ini
attr iterationvars "$net=abilene_cost, $rep=5, $priceratiovalue=10, $weights=0.333_0.333_0.334, $lambda=100, $a=1, $ctlg=1e5, $F=nrr, $ttl=10, $D=costaware0.005, $xi=1, $R=lru, $csize=1e3, $pricebits=0, $window=60, $variance=0.05, $mytime=1800"
attr iterationvars2 "$net=abilene_cost, $rep=5, $priceratiovalue=10, $weights=0.333_0.333_0.334, $lambda=100, $a=1, $ctlg=1e5, $F=nrr, $ttl=10, $D=costaware0.005, $xi=1, $R=lru, $csize=1e3, $pricebits=0, $window=60, $variance=0.05, $mytime=1800, $repetition=0"
attr lambda 100
attr measurement "$net=abilene_cost, $rep=5, $priceratiovalue=10, $weights=0.333_0.333_0.334, $lambda=100, $a=1, $ctlg=1e5, $F=nrr, $ttl=10, $D=costaware0.005, $xi=1, $R=lru, $csize=1e3, $pricebits=0, $window=60, $variance=0.05, $mytime=1800"
attr mytime 1800
attr net abilene_cost
attr network networks.${net=abilene_cost,geant_cost}_network
attr pricebits 0
attr priceratiovalue 10
attr processid 23697
attr rep 5
attr repetition 0
attr replication #0
attr resultdir results
attr runnumber 13
attr seedset 5
attr ttl 10
attr variance 0.05
attr weights 0.333_0.333_0.334
attr window 60
attr xi 1

scalar . 	a 	1
scalar . 	csize 	1e3
scalar . 	ctlg 	1e5
scalar . 	lambda 	100
scalar . 	mytime 	1800
scalar . 	pricebits 	0
scalar . 	priceratiovalue 	10
scalar . 	rep 	5
scalar . 	ttl 	10
scalar . 	variance 	0.05
scalar . 	window 	60
scalar . 	xi 	1
scalar abilene_cost_network.content_distribution 	repo-0 	9
scalar abilene_cost_network.content_distribution 	repo-1 	5
scalar abilene_cost_network.content_distribution 	repo-2 	1
scalar abilene_cost_network.content_distribution 	client-0 	4
scalar abilene_cost_network.content_distribution 	client-1 	9
scalar abilene_cost_network.content_distribution 	client-2 	0
scalar abilene_cost_network.content_distribution 	repo-0_card 	33098
scalar abilene_cost_network.content_distribution 	repo-0_price 	1
scalar abilene_cost_network.content_distribution 	repo-1_card 	33495
scalar abilene_cost_network.content_distribution 	repo-1_price 	10
scalar abilene_cost_network.content_distribution 	repo-2_card 	33407
scalar abilene_cost_network.content_distribution 	repo-2_price 	0
scalar abilene_cost_network.statistics 	repo_popularity[0] 	0.31037770261398
scalar abilene_cost_network.statistics 	repo_popularity[1] 	0.29913869324176
scalar abilene_cost_network.statistics 	repo_popularity[2] 	0.39048360414427
scalar abilene_cost_network.statistics 	stabilization_time 	4426
scalar abilene_cost_network.statistics 	p_hit 	0.10315885327858
scalar abilene_cost_network.statistics 	interests 	150348
scalar abilene_cost_network.statistics 	data 	101279.63636364
scalar abilene_cost_network.statistics 	hdistance 	2.7704391580719
scalar abilene_cost_network.statistics 	avg_time 	0.013519462677
scalar abilene_cost_network.statistics 	downloads 	532839
scalar abilene_cost_network.statistics 	total_cost 	779300
scalar abilene_cost_network.statistics 	total_replicas 	100000
scalar abilene_cost_network.statistics 	inner_hit 	0.32020929398937
scalar abilene_cost_network.node[0].core_layer 	interests[0] 	185707
scalar abilene_cost_network.node[0].core_layer 	data[0] 	170812
scalar abilene_cost_network.node[0].core_layer 	repo_int[0] 	362219
scalar abilene_cost_network.node[0].content_store 	p_hit[0] 	0.067832661127475
scalar abilene_cost_network.node[0].content_store 	hits[0] 	12597
scalar abilene_cost_network.node[0].content_store 	misses[0] 	173110
scalar abilene_cost_network.node[0].content_store 	decision_yes[0] 	315
scalar abilene_cost_network.node[0].content_store 	decision_no[0] 	170497
scalar abilene_cost_network.node[0].content_store 	decision_ratio[0] 	0.0018441327307215
scalar abilene_cost_network.node[0].content_store 	correction_factor[0] 	0.0013612850530901
scalar abilene_cost_network.node[0].content_store 	kappa[0] 	1
scalar abilene_cost_network.node[1].core_layer 	interests[1] 	269041
scalar abilene_cost_network.node[1].core_layer 	repo_load[1] 	205818
scalar abilene_cost_network.node[1].core_layer 	data[1] 	51207
scalar abilene_cost_network.node[1].content_store 	p_hit[1] 	0.044666054616211
scalar abilene_cost_network.node[1].content_store 	hits[1] 	12017
scalar abilene_cost_network.node[1].content_store 	misses[1] 	257024
scalar abilene_cost_network.node[1].content_store 	decision_yes[1] 	279
scalar abilene_cost_network.node[1].content_store 	decision_no[1] 	256746
scalar abilene_cost_network.node[1].content_store 	decision_ratio[1] 	0.0010854975196965
scalar abilene_cost_network.node[1].content_store 	correction_factor[1] 	0.0013612850530901
scalar abilene_cost_network.node[1].content_store 	kappa[1] 	1
scalar abilene_cost_network.node[2].core_layer 	interests[2] 	187013
scalar abilene_cost_network.node[2].core_layer 	data[2] 	158934
scalar abilene_cost_network.node[2].content_store 	p_hit[2] 	0.15012860068551
scalar abilene_cost_network.node[2].content_store 	hits[2] 	28076
scalar abilene_cost_network.node[2].content_store 	misses[2] 	158937
scalar abilene_cost_network.node[2].content_store 	decision_yes[2] 	309
scalar abilene_cost_network.node[2].content_store 	decision_no[2] 	158625
scalar abilene_cost_network.node[2].content_store 	decision_ratio[2] 	0.001944203254181
scalar abilene_cost_network.node[2].content_store 	correction_factor[2] 	0.0013612850530901
scalar abilene_cost_network.node[2].content_store 	kappa[2] 	1
scalar abilene_cost_network.node[3].core_layer 	interests[3] 	173231
scalar abilene_cost_network.node[3].core_layer 	data[3] 	164894
scalar abilene_cost_network.node[3].content_store 	p_hit[3] 	0.048132262701249
scalar abilene_cost_network.node[3].content_store 	hits[3] 	8338
scalar abilene_cost_network.node[3].content_store 	misses[3] 	164893
scalar abilene_cost_network.node[3].content_store 	decision_yes[3] 	334
scalar abilene_cost_network.node[3].content_store 	decision_no[3] 	164560
scalar abilene_cost_network.node[3].content_store 	decision_ratio[3] 	0.0020255436826082
scalar abilene_cost_network.node[3].content_store 	correction_factor[3] 	0.0013612850530901
scalar abilene_cost_network.node[3].content_store 	kappa[3] 	1
scalar abilene_cost_network.node[4].core_layer 	interests[4] 	211165
scalar abilene_cost_network.node[4].core_layer 	data[4] 	193309
scalar abilene_cost_network.node[4].content_store 	p_hit[4] 	0.073989534250468
scalar abilene_cost_network.node[4].content_store 	hits[4] 	15624
scalar abilene_cost_network.node[4].content_store 	misses[4] 	195541
scalar abilene_cost_network.node[4].content_store 	decision_yes[4] 	698
scalar abilene_cost_network.node[4].content_store 	decision_no[4] 	192611
scalar abilene_cost_network.node[4].content_store 	decision_ratio[4] 	0.0036107992902555
scalar abilene_cost_network.node[4].content_store 	correction_factor[4] 	0.0013612850530901
scalar abilene_cost_network.node[4].content_store 	kappa[4] 	1
scalar abilene_cost_network.node[5].core_layer 	interests[5] 	83606
scalar abilene_cost_network.node[5].core_layer 	repo_load[5] 	69211
scalar abilene_cost_network.node[5].core_layer 	data[5] 	0
scalar abilene_cost_network.node[5].content_store 	p_hit[5] 	0.17217663804033
scalar abilene_cost_network.node[5].content_store 	hits[5] 	14395
scalar abilene_cost_network.node[5].content_store 	misses[5] 	69211
scalar abilene_cost_network.node[5].content_store 	decision_yes[5] 	900
scalar abilene_cost_network.node[5].content_store 	decision_no[5] 	68311
scalar abilene_cost_network.node[5].content_store 	decision_ratio[5] 	0.013003713282571
scalar abilene_cost_network.node[5].content_store 	correction_factor[5] 	0.0013612850530901
scalar abilene_cost_network.node[5].content_store 	kappa[5] 	1
scalar abilene_cost_network.node[6].core_layer 	interests[6] 	28631
scalar abilene_cost_network.node[6].core_layer 	data[6] 	25165
scalar abilene_cost_network.node[6].content_store 	p_hit[6] 	0.1210575949146
scalar abilene_cost_network.node[6].content_store 	hits[6] 	3466
scalar abilene_cost_network.node[6].content_store 	misses[6] 	25165
scalar abilene_cost_network.node[6].content_store 	decision_yes[6] 	278
scalar abilene_cost_network.node[6].content_store 	decision_no[6] 	24887
scalar abilene_cost_network.node[6].content_store 	decision_ratio[6] 	0.011047089211206
scalar abilene_cost_network.node[6].content_store 	correction_factor[6] 	0.0013612850530901
scalar abilene_cost_network.node[6].content_store 	kappa[6] 	1
scalar abilene_cost_network.node[7].core_layer 	interests[7] 	33239
scalar abilene_cost_network.node[7].core_layer 	data[7] 	28631
scalar abilene_cost_network.node[7].content_store 	p_hit[7] 	0.13863232949246
scalar abilene_cost_network.node[7].content_store 	hits[7] 	4608
scalar abilene_cost_network.node[7].content_store 	misses[7] 	28631
scalar abilene_cost_network.node[7].content_store 	decision_yes[7] 	306
scalar abilene_cost_network.node[7].content_store 	decision_no[7] 	28325
scalar abilene_cost_network.node[7].content_store 	decision_ratio[7] 	0.010687716111907
scalar abilene_cost_network.node[7].content_store 	correction_factor[7] 	0.0013612850530901
scalar abilene_cost_network.node[7].content_store 	kappa[7] 	1
scalar abilene_cost_network.node[8].core_layer 	interests[8] 	88520
scalar abilene_cost_network.node[8].core_layer 	data[8] 	78366
scalar abilene_cost_network.node[8].content_store 	p_hit[8] 	0.1147198373249
scalar abilene_cost_network.node[8].content_store 	hits[8] 	10155
scalar abilene_cost_network.node[8].content_store 	misses[8] 	78365
scalar abilene_cost_network.node[8].content_store 	decision_yes[8] 	328
scalar abilene_cost_network.node[8].content_store 	decision_no[8] 	78038
scalar abilene_cost_network.node[8].content_store 	decision_ratio[8] 	0.0041854886047521
scalar abilene_cost_network.node[8].content_store 	correction_factor[8] 	0.0013612850530901
scalar abilene_cost_network.node[8].content_store 	kappa[8] 	1
scalar abilene_cost_network.node[9].core_layer 	interests[9] 	263741
scalar abilene_cost_network.node[9].core_layer 	repo_load[9] 	87190
scalar abilene_cost_network.node[9].core_layer 	data[9] 	118972
scalar abilene_cost_network.node[9].content_store 	p_hit[9] 	0.20923936740969
scalar abilene_cost_network.node[9].content_store 	hits[9] 	55185
scalar abilene_cost_network.node[9].content_store 	misses[9] 	208556
scalar abilene_cost_network.node[9].content_store 	decision_yes[9] 	425
scalar abilene_cost_network.node[9].content_store 	decision_no[9] 	205737
scalar abilene_cost_network.node[9].content_store 	decision_ratio[9] 	0.0020614856278073
scalar abilene_cost_network.node[9].content_store 	correction_factor[9] 	0.0013612850530901
scalar abilene_cost_network.node[9].content_store 	kappa[9] 	1
scalar abilene_cost_network.node[10].core_layer 	interests[10] 	129934
scalar abilene_cost_network.node[10].core_layer 	data[10] 	123786
scalar abilene_cost_network.node[10].content_store 	p_hit[10] 	0.047300937398987
scalar abilene_cost_network.node[10].content_store 	hits[10] 	6146
scalar abilene_cost_network.node[10].content_store 	misses[10] 	123788
scalar abilene_cost_network.node[10].content_store 	decision_yes[10] 	34
scalar abilene_cost_network.node[10].content_store 	decision_no[10] 	123752
scalar abilene_cost_network.node[10].content_store 	decision_ratio[10] 	0.00027466757145396
scalar abilene_cost_network.node[10].content_store 	correction_factor[10] 	0.0013612850530901
scalar abilene_cost_network.node[10].content_store 	kappa[10] 	1
scalar abilene_cost_network.client[0] 	hdistance[0] 	2.674276914084
scalar abilene_cost_network.client[0] 	downloads[0] 	177918
scalar abilene_cost_network.client[0] 	avg_time[0] 	0.014388118714
scalar abilene_cost_network.client[4] 	hdistance[4] 	3.2726904239149
scalar abilene_cost_network.client[4] 	downloads[4] 	177630
scalar abilene_cost_network.client[4] 	avg_time[4] 	0.01390471085
scalar abilene_cost_network.client[9] 	hdistance[9] 	2.3643501362167
scalar abilene_cost_network.client[9] 	downloads[9] 	177291
scalar abilene_cost_network.client[9] 	avg_time[9] 	0.012265558468
