version 2
run General-3-20150722-13:23:51-32207
attr C 1e4
attr D lce
attr F spr
attr R always_highq
attr a 1
attr brates 0.3_0.7_1.5_2.5_3.5
attr configname General
attr ctlg 1e6
attr datetime 20150722-13:23:51
attr experiment General
attr inifile omnetpp.ini
attr iterationvars "$net=barabasi_100nodes, $rep=2, $lambda=100, $a=1, $ctlg=1e6, $brates=0.3_0.7_1.5_2.5_3.5, $F=spr, $ttl=1000, $D=lce, $R=always_highq, $C=1e4, $window=60, $variance=0.05, $mytime=1800"
attr iterationvars2 "$net=barabasi_100nodes, $rep=2, $lambda=100, $a=1, $ctlg=1e6, $brates=0.3_0.7_1.5_2.5_3.5, $F=spr, $ttl=1000, $D=lce, $R=always_highq, $C=1e4, $window=60, $variance=0.05, $mytime=1800, $repetition=0"
attr lambda 100
attr measurement "$net=barabasi_100nodes, $rep=2, $lambda=100, $a=1, $ctlg=1e6, $brates=0.3_0.7_1.5_2.5_3.5, $F=spr, $ttl=1000, $D=lce, $R=always_highq, $C=1e4, $window=60, $variance=0.05, $mytime=1800"
attr mytime 1800
attr net barabasi_100nodes
attr network networks.${net=barabasi_100nodes}_network
attr processid 32207
attr rep 2
attr repetition 0
attr replication #0
attr resultdir results
attr runnumber 3
attr seedset 2
attr ttl 1000
attr variance 0.05
attr window 60

scalar . 	C 	1e4
scalar . 	a 	1
scalar . 	ctlg 	1e6
scalar . 	lambda 	100
scalar . 	mytime 	1800
scalar . 	rep 	2
scalar . 	ttl 	1000
scalar . 	variance 	0.05
scalar . 	window 	60
scalar barabasi_100nodes_network.content_distribution 	repo-0 	47
scalar barabasi_100nodes_network.content_distribution 	repo-1 	68
scalar barabasi_100nodes_network.content_distribution 	repo-2 	25
scalar barabasi_100nodes_network.content_distribution 	repo-3 	67
scalar barabasi_100nodes_network.content_distribution 	repo-4 	83
scalar barabasi_100nodes_network.content_distribution 	repo-5 	23
scalar barabasi_100nodes_network.content_distribution 	repo-6 	92
scalar barabasi_100nodes_network.content_distribution 	repo-7 	57
scalar barabasi_100nodes_network.content_distribution 	repo-8 	14
scalar barabasi_100nodes_network.content_distribution 	repo-9 	72
scalar barabasi_100nodes_network.content_distribution 	repo-10 	89
scalar barabasi_100nodes_network.content_distribution 	repo-11 	42
scalar barabasi_100nodes_network.content_distribution 	repo-12 	90
scalar barabasi_100nodes_network.content_distribution 	repo-13 	8
scalar barabasi_100nodes_network.content_distribution 	repo-14 	39
scalar barabasi_100nodes_network.content_distribution 	repo-15 	48
scalar barabasi_100nodes_network.content_distribution 	repo-16 	7
scalar barabasi_100nodes_network.content_distribution 	repo-17 	44
scalar barabasi_100nodes_network.content_distribution 	repo-18 	0
scalar barabasi_100nodes_network.content_distribution 	repo-19 	75
scalar barabasi_100nodes_network.content_distribution 	repo-20 	55
scalar barabasi_100nodes_network.content_distribution 	repo-21 	6
scalar barabasi_100nodes_network.content_distribution 	repo-22 	19
scalar barabasi_100nodes_network.content_distribution 	repo-23 	60
scalar barabasi_100nodes_network.content_distribution 	repo-24 	63
scalar barabasi_100nodes_network.content_distribution 	repo-25 	69
scalar barabasi_100nodes_network.content_distribution 	repo-26 	56
scalar barabasi_100nodes_network.content_distribution 	repo-27 	24
scalar barabasi_100nodes_network.content_distribution 	repo-28 	53
scalar barabasi_100nodes_network.content_distribution 	repo-29 	61
scalar barabasi_100nodes_network.content_distribution 	repo-30 	64
scalar barabasi_100nodes_network.content_distribution 	repo-31 	34
scalar barabasi_100nodes_network.content_distribution 	repo-32 	73
scalar barabasi_100nodes_network.content_distribution 	repo-33 	78
scalar barabasi_100nodes_network.content_distribution 	repo-34 	38
scalar barabasi_100nodes_network.content_distribution 	repo-35 	4
scalar barabasi_100nodes_network.content_distribution 	repo-36 	9
scalar barabasi_100nodes_network.content_distribution 	repo-37 	87
scalar barabasi_100nodes_network.content_distribution 	repo-38 	99
scalar barabasi_100nodes_network.content_distribution 	repo-39 	1
scalar barabasi_100nodes_network.content_distribution 	repo-40 	16
scalar barabasi_100nodes_network.content_distribution 	repo-41 	31
scalar barabasi_100nodes_network.content_distribution 	repo-42 	93
scalar barabasi_100nodes_network.content_distribution 	repo-43 	71
scalar barabasi_100nodes_network.content_distribution 	repo-44 	10
scalar barabasi_100nodes_network.content_distribution 	repo-45 	35
scalar barabasi_100nodes_network.content_distribution 	repo-46 	96
scalar barabasi_100nodes_network.content_distribution 	repo-47 	21
scalar barabasi_100nodes_network.content_distribution 	repo-48 	97
scalar barabasi_100nodes_network.content_distribution 	repo-49 	91
scalar barabasi_100nodes_network.content_distribution 	repo-50 	27
scalar barabasi_100nodes_network.content_distribution 	repo-51 	33
scalar barabasi_100nodes_network.content_distribution 	repo-52 	30
scalar barabasi_100nodes_network.content_distribution 	repo-53 	81
scalar barabasi_100nodes_network.content_distribution 	repo-54 	2
scalar barabasi_100nodes_network.content_distribution 	repo-55 	50
scalar barabasi_100nodes_network.content_distribution 	repo-56 	18
scalar barabasi_100nodes_network.content_distribution 	repo-57 	58
scalar barabasi_100nodes_network.content_distribution 	repo-58 	12
scalar barabasi_100nodes_network.content_distribution 	repo-59 	76
scalar barabasi_100nodes_network.content_distribution 	repo-60 	20
scalar barabasi_100nodes_network.content_distribution 	repo-61 	15
scalar barabasi_100nodes_network.content_distribution 	repo-62 	59
scalar barabasi_100nodes_network.content_distribution 	repo-63 	43
scalar barabasi_100nodes_network.content_distribution 	repo-64 	54
scalar barabasi_100nodes_network.content_distribution 	repo-65 	77
scalar barabasi_100nodes_network.content_distribution 	repo-66 	3
scalar barabasi_100nodes_network.content_distribution 	repo-67 	29
scalar barabasi_100nodes_network.content_distribution 	repo-68 	79
scalar barabasi_100nodes_network.content_distribution 	repo-69 	70
scalar barabasi_100nodes_network.content_distribution 	repo-70 	52
scalar barabasi_100nodes_network.content_distribution 	repo-71 	41
scalar barabasi_100nodes_network.content_distribution 	repo-72 	26
scalar barabasi_100nodes_network.content_distribution 	repo-73 	62
scalar barabasi_100nodes_network.content_distribution 	repo-74 	86
scalar barabasi_100nodes_network.content_distribution 	repo-75 	98
scalar barabasi_100nodes_network.content_distribution 	repo-76 	17
scalar barabasi_100nodes_network.content_distribution 	repo-77 	5
scalar barabasi_100nodes_network.content_distribution 	repo-78 	49
scalar barabasi_100nodes_network.content_distribution 	repo-79 	37
scalar barabasi_100nodes_network.content_distribution 	repo-80 	85
scalar barabasi_100nodes_network.content_distribution 	repo-81 	51
scalar barabasi_100nodes_network.content_distribution 	repo-82 	36
scalar barabasi_100nodes_network.content_distribution 	repo-83 	82
scalar barabasi_100nodes_network.content_distribution 	repo-84 	28
scalar barabasi_100nodes_network.content_distribution 	repo-85 	32
scalar barabasi_100nodes_network.content_distribution 	repo-86 	95
scalar barabasi_100nodes_network.content_distribution 	repo-87 	45
scalar barabasi_100nodes_network.content_distribution 	repo-88 	40
scalar barabasi_100nodes_network.content_distribution 	repo-89 	13
scalar barabasi_100nodes_network.content_distribution 	repo-90 	80
scalar barabasi_100nodes_network.content_distribution 	repo-91 	46
scalar barabasi_100nodes_network.content_distribution 	repo-92 	11
scalar barabasi_100nodes_network.content_distribution 	repo-93 	94
scalar barabasi_100nodes_network.content_distribution 	repo-94 	22
scalar barabasi_100nodes_network.content_distribution 	repo-95 	66
scalar barabasi_100nodes_network.content_distribution 	repo-96 	88
scalar barabasi_100nodes_network.content_distribution 	repo-97 	84
scalar barabasi_100nodes_network.content_distribution 	repo-98 	74
scalar barabasi_100nodes_network.content_distribution 	repo-99 	65
scalar barabasi_100nodes_network.content_distribution 	client-0 	85
scalar barabasi_100nodes_network.content_distribution 	client-1 	89
scalar barabasi_100nodes_network.content_distribution 	client-2 	52
scalar barabasi_100nodes_network.content_distribution 	client-3 	21
scalar barabasi_100nodes_network.content_distribution 	client-4 	37
scalar barabasi_100nodes_network.content_distribution 	client-5 	25
scalar barabasi_100nodes_network.content_distribution 	client-6 	68
scalar barabasi_100nodes_network.content_distribution 	client-7 	29
scalar barabasi_100nodes_network.content_distribution 	client-8 	22
scalar barabasi_100nodes_network.content_distribution 	client-9 	32
scalar barabasi_100nodes_network.content_distribution 	client-10 	63
scalar barabasi_100nodes_network.content_distribution 	client-11 	86
scalar barabasi_100nodes_network.content_distribution 	client-12 	98
scalar barabasi_100nodes_network.content_distribution 	client-13 	10
scalar barabasi_100nodes_network.content_distribution 	client-14 	77
scalar barabasi_100nodes_network.content_distribution 	client-15 	35
scalar barabasi_100nodes_network.content_distribution 	client-16 	33
scalar barabasi_100nodes_network.content_distribution 	client-17 	38
scalar barabasi_100nodes_network.content_distribution 	client-18 	80
scalar barabasi_100nodes_network.content_distribution 	client-19 	23
scalar barabasi_100nodes_network.content_distribution 	client-20 	0
scalar barabasi_100nodes_network.content_distribution 	client-21 	82
scalar barabasi_100nodes_network.content_distribution 	client-22 	73
scalar barabasi_100nodes_network.content_distribution 	client-23 	6
scalar barabasi_100nodes_network.content_distribution 	client-24 	17
scalar barabasi_100nodes_network.content_distribution 	client-25 	2
scalar barabasi_100nodes_network.content_distribution 	client-26 	14
scalar barabasi_100nodes_network.content_distribution 	client-27 	46
scalar barabasi_100nodes_network.content_distribution 	client-28 	66
scalar barabasi_100nodes_network.content_distribution 	client-29 	31
scalar barabasi_100nodes_network.content_distribution 	client-30 	8
scalar barabasi_100nodes_network.content_distribution 	client-31 	92
scalar barabasi_100nodes_network.content_distribution 	client-32 	41
scalar barabasi_100nodes_network.content_distribution 	client-33 	26
scalar barabasi_100nodes_network.content_distribution 	client-34 	18
scalar barabasi_100nodes_network.content_distribution 	client-35 	84
scalar barabasi_100nodes_network.content_distribution 	client-36 	55
scalar barabasi_100nodes_network.content_distribution 	client-37 	28
scalar barabasi_100nodes_network.content_distribution 	client-38 	79
scalar barabasi_100nodes_network.content_distribution 	client-39 	45
scalar barabasi_100nodes_network.content_distribution 	client-40 	97
scalar barabasi_100nodes_network.content_distribution 	client-41 	64
scalar barabasi_100nodes_network.content_distribution 	client-42 	1
scalar barabasi_100nodes_network.content_distribution 	client-43 	24
scalar barabasi_100nodes_network.content_distribution 	client-44 	58
scalar barabasi_100nodes_network.content_distribution 	client-45 	36
scalar barabasi_100nodes_network.content_distribution 	client-46 	42
scalar barabasi_100nodes_network.content_distribution 	client-47 	47
scalar barabasi_100nodes_network.content_distribution 	client-48 	43
scalar barabasi_100nodes_network.content_distribution 	client-49 	72
scalar barabasi_100nodes_network.content_distribution 	client-50 	87
scalar barabasi_100nodes_network.content_distribution 	client-51 	51
scalar barabasi_100nodes_network.content_distribution 	client-52 	27
scalar barabasi_100nodes_network.content_distribution 	client-53 	78
scalar barabasi_100nodes_network.content_distribution 	client-54 	61
scalar barabasi_100nodes_network.content_distribution 	client-55 	30
scalar barabasi_100nodes_network.content_distribution 	client-56 	76
scalar barabasi_100nodes_network.content_distribution 	client-57 	57
scalar barabasi_100nodes_network.content_distribution 	client-58 	59
scalar barabasi_100nodes_network.content_distribution 	client-59 	88
scalar barabasi_100nodes_network.content_distribution 	client-60 	50
scalar barabasi_100nodes_network.content_distribution 	client-61 	81
scalar barabasi_100nodes_network.content_distribution 	client-62 	4
scalar barabasi_100nodes_network.content_distribution 	client-63 	93
scalar barabasi_100nodes_network.content_distribution 	client-64 	75
scalar barabasi_100nodes_network.content_distribution 	client-65 	95
scalar barabasi_100nodes_network.content_distribution 	client-66 	3
scalar barabasi_100nodes_network.content_distribution 	client-67 	69
scalar barabasi_100nodes_network.content_distribution 	client-68 	62
scalar barabasi_100nodes_network.content_distribution 	client-69 	60
scalar barabasi_100nodes_network.content_distribution 	client-70 	44
scalar barabasi_100nodes_network.content_distribution 	client-71 	13
scalar barabasi_100nodes_network.content_distribution 	client-72 	96
scalar barabasi_100nodes_network.content_distribution 	client-73 	54
scalar barabasi_100nodes_network.content_distribution 	client-74 	65
scalar barabasi_100nodes_network.content_distribution 	client-75 	48
scalar barabasi_100nodes_network.content_distribution 	client-76 	94
scalar barabasi_100nodes_network.content_distribution 	client-77 	91
scalar barabasi_100nodes_network.content_distribution 	client-78 	74
scalar barabasi_100nodes_network.content_distribution 	client-79 	49
scalar barabasi_100nodes_network.content_distribution 	client-80 	40
scalar barabasi_100nodes_network.content_distribution 	client-81 	53
scalar barabasi_100nodes_network.content_distribution 	client-82 	71
scalar barabasi_100nodes_network.content_distribution 	client-83 	39
scalar barabasi_100nodes_network.content_distribution 	client-84 	56
scalar barabasi_100nodes_network.content_distribution 	client-85 	67
scalar barabasi_100nodes_network.content_distribution 	client-86 	16
scalar barabasi_100nodes_network.content_distribution 	client-87 	70
scalar barabasi_100nodes_network.content_distribution 	client-88 	7
scalar barabasi_100nodes_network.content_distribution 	client-89 	99
scalar barabasi_100nodes_network.content_distribution 	client-90 	90
scalar barabasi_100nodes_network.content_distribution 	client-91 	5
scalar barabasi_100nodes_network.content_distribution 	client-92 	83
scalar barabasi_100nodes_network.content_distribution 	client-93 	20
scalar barabasi_100nodes_network.content_distribution 	client-94 	11
scalar barabasi_100nodes_network.content_distribution 	client-95 	9
scalar barabasi_100nodes_network.content_distribution 	client-96 	19
scalar barabasi_100nodes_network.content_distribution 	client-97 	12
scalar barabasi_100nodes_network.content_distribution 	client-98 	15
scalar barabasi_100nodes_network.content_distribution 	client-99 	34
scalar barabasi_100nodes_network.content_distribution 	repo-0_card 	250135
scalar barabasi_100nodes_network.content_distribution 	repo-0_price 	0
scalar barabasi_100nodes_network.content_distribution 	repo-1_card 	249891
scalar barabasi_100nodes_network.content_distribution 	repo-1_price 	0
scalar barabasi_100nodes_network.content_distribution 	repo-2_card 	249908
scalar barabasi_100nodes_network.content_distribution 	repo-2_price 	0
scalar barabasi_100nodes_network.content_distribution 	repo-3_card 	250066
scalar barabasi_100nodes_network.content_distribution 	repo-3_price 	0
scalar barabasi_100nodes_network.content_distribution 	repo-4_card 	0
scalar barabasi_100nodes_network.content_distribution 	repo-4_price 	0
scalar barabasi_100nodes_network.content_distribution 	repo-5_card 	0
scalar barabasi_100nodes_network.content_distribution 	repo-5_price 	0
scalar barabasi_100nodes_network.content_distribution 	repo-6_card 	0
scalar barabasi_100nodes_network.content_distribution 	repo-6_price 	0
scalar barabasi_100nodes_network.content_distribution 	repo-7_card 	0
scalar barabasi_100nodes_network.content_distribution 	repo-7_price 	0
scalar barabasi_100nodes_network.content_distribution 	repo-8_card 	0
scalar barabasi_100nodes_network.content_distribution 	repo-8_price 	0
scalar barabasi_100nodes_network.content_distribution 	repo-9_card 	0
scalar barabasi_100nodes_network.content_distribution 	repo-9_price 	0
scalar barabasi_100nodes_network.content_distribution 	repo-10_card 	0
scalar barabasi_100nodes_network.content_distribution 	repo-10_price 	0
scalar barabasi_100nodes_network.content_distribution 	repo-11_card 	0
scalar barabasi_100nodes_network.content_distribution 	repo-11_price 	0
scalar barabasi_100nodes_network.content_distribution 	repo-12_card 	0
scalar barabasi_100nodes_network.content_distribution 	repo-12_price 	0
scalar barabasi_100nodes_network.content_distribution 	repo-13_card 	0
scalar barabasi_100nodes_network.content_distribution 	repo-13_price 	0
scalar barabasi_100nodes_network.content_distribution 	repo-14_card 	0
scalar barabasi_100nodes_network.content_distribution 	repo-14_price 	0
scalar barabasi_100nodes_network.content_distribution 	repo-15_card 	0
scalar barabasi_100nodes_network.content_distribution 	repo-15_price 	0
scalar barabasi_100nodes_network.content_distribution 	repo-16_card 	0
scalar barabasi_100nodes_network.content_distribution 	repo-16_price 	0
scalar barabasi_100nodes_network.content_distribution 	repo-17_card 	0
scalar barabasi_100nodes_network.content_distribution 	repo-17_price 	0
scalar barabasi_100nodes_network.content_distribution 	repo-18_card 	0
scalar barabasi_100nodes_network.content_distribution 	repo-18_price 	0
scalar barabasi_100nodes_network.content_distribution 	repo-19_card 	0
scalar barabasi_100nodes_network.content_distribution 	repo-19_price 	0
scalar barabasi_100nodes_network.content_distribution 	repo-20_card 	0
scalar barabasi_100nodes_network.content_distribution 	repo-20_price 	0
scalar barabasi_100nodes_network.content_distribution 	repo-21_card 	0
scalar barabasi_100nodes_network.content_distribution 	repo-21_price 	0
scalar barabasi_100nodes_network.content_distribution 	repo-22_card 	0
scalar barabasi_100nodes_network.content_distribution 	repo-22_price 	0
scalar barabasi_100nodes_network.content_distribution 	repo-23_card 	0
scalar barabasi_100nodes_network.content_distribution 	repo-23_price 	0
scalar barabasi_100nodes_network.content_distribution 	repo-24_card 	0
scalar barabasi_100nodes_network.content_distribution 	repo-24_price 	0
scalar barabasi_100nodes_network.content_distribution 	repo-25_card 	0
scalar barabasi_100nodes_network.content_distribution 	repo-25_price 	0
scalar barabasi_100nodes_network.content_distribution 	repo-26_card 	0
scalar barabasi_100nodes_network.content_distribution 	repo-26_price 	0
scalar barabasi_100nodes_network.content_distribution 	repo-27_card 	0
scalar barabasi_100nodes_network.content_distribution 	repo-27_price 	0
scalar barabasi_100nodes_network.content_distribution 	repo-28_card 	0
scalar barabasi_100nodes_network.content_distribution 	repo-28_price 	0
scalar barabasi_100nodes_network.content_distribution 	repo-29_card 	0
scalar barabasi_100nodes_network.content_distribution 	repo-29_price 	0
scalar barabasi_100nodes_network.content_distribution 	repo-30_card 	0
scalar barabasi_100nodes_network.content_distribution 	repo-30_price 	0
scalar barabasi_100nodes_network.content_distribution 	repo-31_card 	0
scalar barabasi_100nodes_network.content_distribution 	repo-31_price 	0
scalar barabasi_100nodes_network.content_distribution 	repo-32_card 	0
scalar barabasi_100nodes_network.content_distribution 	repo-32_price 	0
scalar barabasi_100nodes_network.content_distribution 	repo-33_card 	0
scalar barabasi_100nodes_network.content_distribution 	repo-33_price 	0
scalar barabasi_100nodes_network.content_distribution 	repo-34_card 	0
scalar barabasi_100nodes_network.content_distribution 	repo-34_price 	0
scalar barabasi_100nodes_network.content_distribution 	repo-35_card 	0
scalar barabasi_100nodes_network.content_distribution 	repo-35_price 	0
scalar barabasi_100nodes_network.content_distribution 	repo-36_card 	0
scalar barabasi_100nodes_network.content_distribution 	repo-36_price 	0
scalar barabasi_100nodes_network.content_distribution 	repo-37_card 	0
scalar barabasi_100nodes_network.content_distribution 	repo-37_price 	0
scalar barabasi_100nodes_network.content_distribution 	repo-38_card 	0
scalar barabasi_100nodes_network.content_distribution 	repo-38_price 	0
scalar barabasi_100nodes_network.content_distribution 	repo-39_card 	0
scalar barabasi_100nodes_network.content_distribution 	repo-39_price 	0
scalar barabasi_100nodes_network.content_distribution 	repo-40_card 	0
scalar barabasi_100nodes_network.content_distribution 	repo-40_price 	0
scalar barabasi_100nodes_network.content_distribution 	repo-41_card 	0
scalar barabasi_100nodes_network.content_distribution 	repo-41_price 	0
scalar barabasi_100nodes_network.content_distribution 	repo-42_card 	0
scalar barabasi_100nodes_network.content_distribution 	repo-42_price 	0
scalar barabasi_100nodes_network.content_distribution 	repo-43_card 	0
scalar barabasi_100nodes_network.content_distribution 	repo-43_price 	0
scalar barabasi_100nodes_network.content_distribution 	repo-44_card 	0
scalar barabasi_100nodes_network.content_distribution 	repo-44_price 	0
scalar barabasi_100nodes_network.content_distribution 	repo-45_card 	0
scalar barabasi_100nodes_network.content_distribution 	repo-45_price 	0
scalar barabasi_100nodes_network.content_distribution 	repo-46_card 	0
scalar barabasi_100nodes_network.content_distribution 	repo-46_price 	0
scalar barabasi_100nodes_network.content_distribution 	repo-47_card 	0
scalar barabasi_100nodes_network.content_distribution 	repo-47_price 	0
scalar barabasi_100nodes_network.content_distribution 	repo-48_card 	0
scalar barabasi_100nodes_network.content_distribution 	repo-48_price 	0
scalar barabasi_100nodes_network.content_distribution 	repo-49_card 	0
scalar barabasi_100nodes_network.content_distribution 	repo-49_price 	0
scalar barabasi_100nodes_network.content_distribution 	repo-50_card 	0
scalar barabasi_100nodes_network.content_distribution 	repo-50_price 	0
scalar barabasi_100nodes_network.content_distribution 	repo-51_card 	0
scalar barabasi_100nodes_network.content_distribution 	repo-51_price 	0
scalar barabasi_100nodes_network.content_distribution 	repo-52_card 	0
scalar barabasi_100nodes_network.content_distribution 	repo-52_price 	0
scalar barabasi_100nodes_network.content_distribution 	repo-53_card 	0
scalar barabasi_100nodes_network.content_distribution 	repo-53_price 	0
scalar barabasi_100nodes_network.content_distribution 	repo-54_card 	0
scalar barabasi_100nodes_network.content_distribution 	repo-54_price 	0
scalar barabasi_100nodes_network.content_distribution 	repo-55_card 	0
scalar barabasi_100nodes_network.content_distribution 	repo-55_price 	0
scalar barabasi_100nodes_network.content_distribution 	repo-56_card 	0
scalar barabasi_100nodes_network.content_distribution 	repo-56_price 	0
scalar barabasi_100nodes_network.content_distribution 	repo-57_card 	0
scalar barabasi_100nodes_network.content_distribution 	repo-57_price 	0
scalar barabasi_100nodes_network.content_distribution 	repo-58_card 	0
scalar barabasi_100nodes_network.content_distribution 	repo-58_price 	0
scalar barabasi_100nodes_network.content_distribution 	repo-59_card 	0
scalar barabasi_100nodes_network.content_distribution 	repo-59_price 	0
scalar barabasi_100nodes_network.content_distribution 	repo-60_card 	0
scalar barabasi_100nodes_network.content_distribution 	repo-60_price 	0
scalar barabasi_100nodes_network.content_distribution 	repo-61_card 	0
scalar barabasi_100nodes_network.content_distribution 	repo-61_price 	0
scalar barabasi_100nodes_network.content_distribution 	repo-62_card 	0
scalar barabasi_100nodes_network.content_distribution 	repo-62_price 	0
scalar barabasi_100nodes_network.content_distribution 	repo-63_card 	0
scalar barabasi_100nodes_network.content_distribution 	repo-63_price 	0
scalar barabasi_100nodes_network.content_distribution 	repo-64_card 	0
scalar barabasi_100nodes_network.content_distribution 	repo-64_price 	0
scalar barabasi_100nodes_network.content_distribution 	repo-65_card 	0
scalar barabasi_100nodes_network.content_distribution 	repo-65_price 	0
scalar barabasi_100nodes_network.content_distribution 	repo-66_card 	0
scalar barabasi_100nodes_network.content_distribution 	repo-66_price 	0
scalar barabasi_100nodes_network.content_distribution 	repo-67_card 	0
scalar barabasi_100nodes_network.content_distribution 	repo-67_price 	0
scalar barabasi_100nodes_network.content_distribution 	repo-68_card 	0
scalar barabasi_100nodes_network.content_distribution 	repo-68_price 	0
scalar barabasi_100nodes_network.content_distribution 	repo-69_card 	0
scalar barabasi_100nodes_network.content_distribution 	repo-69_price 	0
scalar barabasi_100nodes_network.content_distribution 	repo-70_card 	0
scalar barabasi_100nodes_network.content_distribution 	repo-70_price 	0
scalar barabasi_100nodes_network.content_distribution 	repo-71_card 	0
scalar barabasi_100nodes_network.content_distribution 	repo-71_price 	0
scalar barabasi_100nodes_network.content_distribution 	repo-72_card 	0
scalar barabasi_100nodes_network.content_distribution 	repo-72_price 	0
scalar barabasi_100nodes_network.content_distribution 	repo-73_card 	0
scalar barabasi_100nodes_network.content_distribution 	repo-73_price 	0
scalar barabasi_100nodes_network.content_distribution 	repo-74_card 	0
scalar barabasi_100nodes_network.content_distribution 	repo-74_price 	0
scalar barabasi_100nodes_network.content_distribution 	repo-75_card 	0
scalar barabasi_100nodes_network.content_distribution 	repo-75_price 	0
scalar barabasi_100nodes_network.content_distribution 	repo-76_card 	0
scalar barabasi_100nodes_network.content_distribution 	repo-76_price 	0
scalar barabasi_100nodes_network.content_distribution 	repo-77_card 	0
scalar barabasi_100nodes_network.content_distribution 	repo-77_price 	0
scalar barabasi_100nodes_network.content_distribution 	repo-78_card 	0
scalar barabasi_100nodes_network.content_distribution 	repo-78_price 	0
scalar barabasi_100nodes_network.content_distribution 	repo-79_card 	0
scalar barabasi_100nodes_network.content_distribution 	repo-79_price 	0
scalar barabasi_100nodes_network.content_distribution 	repo-80_card 	0
scalar barabasi_100nodes_network.content_distribution 	repo-80_price 	0
scalar barabasi_100nodes_network.content_distribution 	repo-81_card 	0
scalar barabasi_100nodes_network.content_distribution 	repo-81_price 	0
scalar barabasi_100nodes_network.content_distribution 	repo-82_card 	0
scalar barabasi_100nodes_network.content_distribution 	repo-82_price 	0
scalar barabasi_100nodes_network.content_distribution 	repo-83_card 	0
scalar barabasi_100nodes_network.content_distribution 	repo-83_price 	0
scalar barabasi_100nodes_network.content_distribution 	repo-84_card 	0
scalar barabasi_100nodes_network.content_distribution 	repo-84_price 	0
scalar barabasi_100nodes_network.content_distribution 	repo-85_card 	0
scalar barabasi_100nodes_network.content_distribution 	repo-85_price 	0
scalar barabasi_100nodes_network.content_distribution 	repo-86_card 	0
scalar barabasi_100nodes_network.content_distribution 	repo-86_price 	0
scalar barabasi_100nodes_network.content_distribution 	repo-87_card 	0
scalar barabasi_100nodes_network.content_distribution 	repo-87_price 	0
scalar barabasi_100nodes_network.content_distribution 	repo-88_card 	0
scalar barabasi_100nodes_network.content_distribution 	repo-88_price 	0
scalar barabasi_100nodes_network.content_distribution 	repo-89_card 	0
scalar barabasi_100nodes_network.content_distribution 	repo-89_price 	0
scalar barabasi_100nodes_network.content_distribution 	repo-90_card 	0
scalar barabasi_100nodes_network.content_distribution 	repo-90_price 	0
scalar barabasi_100nodes_network.content_distribution 	repo-91_card 	0
scalar barabasi_100nodes_network.content_distribution 	repo-91_price 	0
scalar barabasi_100nodes_network.content_distribution 	repo-92_card 	0
scalar barabasi_100nodes_network.content_distribution 	repo-92_price 	0
scalar barabasi_100nodes_network.content_distribution 	repo-93_card 	0
scalar barabasi_100nodes_network.content_distribution 	repo-93_price 	0
scalar barabasi_100nodes_network.content_distribution 	repo-94_card 	0
scalar barabasi_100nodes_network.content_distribution 	repo-94_price 	0
scalar barabasi_100nodes_network.content_distribution 	repo-95_card 	0
scalar barabasi_100nodes_network.content_distribution 	repo-95_price 	0
scalar barabasi_100nodes_network.content_distribution 	repo-96_card 	0
scalar barabasi_100nodes_network.content_distribution 	repo-96_price 	0
scalar barabasi_100nodes_network.content_distribution 	repo-97_card 	0
scalar barabasi_100nodes_network.content_distribution 	repo-97_price 	0
scalar barabasi_100nodes_network.content_distribution 	repo-98_card 	0
scalar barabasi_100nodes_network.content_distribution 	repo-98_price 	0
scalar barabasi_100nodes_network.content_distribution 	repo-99_card 	0
scalar barabasi_100nodes_network.content_distribution 	repo-99_price 	0
scalar barabasi_100nodes_network.statistics 	stabilization_time 	352.9
scalar barabasi_100nodes_network.statistics 	p_hit 	0.11904331511999
scalar barabasi_100nodes_network.statistics 	interests 	952673.57
scalar barabasi_100nodes_network.statistics 	data 	483850.85
scalar barabasi_100nodes_network.statistics 	hdistance 	1.8232430446111
scalar barabasi_100nodes_network.statistics 	avg_time 	0
scalar barabasi_100nodes_network.statistics 	downloads 	17997515
scalar barabasi_100nodes_network.statistics 	total_cost 	0
scalar barabasi_100nodes_network.statistics 	total_replicas 	1000000
scalar barabasi_100nodes_network.statistics 	"representations_downloaded 0.369861:0:0:0:0.630139:" 	0
scalar barabasi_100nodes_network.statistics 	"slots_per_representation 100:233:500:833:1167:" 	0
scalar barabasi_100nodes_network.statistics 	inner_hit 	238.57270423167
scalar barabasi_100nodes_network.statistics 	execution_time 	2017
scalar barabasi_100nodes_network.node[0].core_layer 	interests[0] 	4825623
scalar barabasi_100nodes_network.node[0].core_layer 	data[0] 	3174255
scalar barabasi_100nodes_network.node[0].core_layer 	slots_sent[face$o[1]->client[0]] 	134707222
scalar barabasi_100nodes_network.node[0].core_layer 	slots_sent[face$o[2]->node[1]] 	101017816
scalar barabasi_100nodes_network.node[0].core_layer 	slots_sent[face$o[3]->node[2]] 	0
scalar barabasi_100nodes_network.node[0].core_layer 	slots_sent[face$o[4]->node[5]] 	376755349
scalar barabasi_100nodes_network.node[0].core_layer 	slots_sent[face$o[5]->node[10]] 	194378414
scalar barabasi_100nodes_network.node[0].core_layer 	slots_sent[face$o[6]->node[11]] 	100448426
scalar barabasi_100nodes_network.node[0].core_layer 	slots_sent[face$o[7]->node[15]] 	285653170
scalar barabasi_100nodes_network.node[0].core_layer 	slots_sent[face$o[8]->node[21]] 	286138305
scalar barabasi_100nodes_network.node[0].core_layer 	slots_sent[face$o[9]->node[22]] 	100551296
scalar barabasi_100nodes_network.node[0].core_layer 	slots_sent[face$o[10]->node[28]] 	100246239
scalar barabasi_100nodes_network.node[0].core_layer 	slots_sent[face$o[11]->node[37]] 	100620304
scalar barabasi_100nodes_network.node[0].core_layer 	slots_sent[face$o[12]->node[44]] 	99953800
scalar barabasi_100nodes_network.node[0].core_layer 	slots_sent[face$o[13]->node[58]] 	194131884
scalar barabasi_100nodes_network.node[0].core_layer 	slots_sent[face$o[14]->node[73]] 	139828723
scalar barabasi_100nodes_network.node[0].core_layer 	slots_sent[face$o[15]->node[74]] 	71122427
scalar barabasi_100nodes_network.node[0].core_layer 	slots_sent[face$o[16]->node[93]] 	99774648
scalar barabasi_100nodes_network.node[0].content_store 	p_hit[0] 	0.055756945787104
scalar barabasi_100nodes_network.node[0].content_store 	hits[0] 	269062
scalar barabasi_100nodes_network.node[0].content_store 	misses[0] 	4556561
scalar barabasi_100nodes_network.node[0].content_store 	decision_yes[0] 	1721178
scalar barabasi_100nodes_network.node[0].content_store 	decision_no[0] 	1453077
scalar barabasi_100nodes_network.node[0].content_store 	decision_ratio[0] 	0.54223053913438
scalar barabasi_100nodes_network.node[0].proactive_component 	hdistance[0].proactive_component 	3.9580322788896
scalar barabasi_100nodes_network.node[0].proactive_component 	downloads[0].proactive_component 	1742625
scalar barabasi_100nodes_network.node[0].proactive_component 	avg_time[0].proactive_component 	0
scalar barabasi_100nodes_network.node[1].core_layer 	interests[1] 	241575
scalar barabasi_100nodes_network.node[1].core_layer 	data[1] 	142195
scalar barabasi_100nodes_network.node[1].core_layer 	slots_sent[face$o[1]->client[1]] 	145985827
scalar barabasi_100nodes_network.node[1].core_layer 	slots_sent[face$o[2]->node[0]] 	0
scalar barabasi_100nodes_network.node[1].content_store 	p_hit[1] 	0.41138362827279
scalar barabasi_100nodes_network.node[1].content_store 	hits[1] 	99380
scalar barabasi_100nodes_network.node[1].content_store 	misses[1] 	142195
scalar barabasi_100nodes_network.node[1].content_store 	decision_yes[1] 	81348
scalar barabasi_100nodes_network.node[1].content_store 	decision_no[1] 	60847
scalar barabasi_100nodes_network.node[1].content_store 	decision_ratio[1] 	0.57208762614719
scalar barabasi_100nodes_network.node[1].proactive_component 	hdistance[1].proactive_component 	4.9700316749495
scalar barabasi_100nodes_network.node[1].proactive_component 	downloads[1].proactive_component 	73244
scalar barabasi_100nodes_network.node[1].proactive_component 	avg_time[1].proactive_component 	0
scalar barabasi_100nodes_network.node[2].core_layer 	interests[2] 	17266948
scalar barabasi_100nodes_network.node[2].core_layer 	data[2] 	11341478
scalar barabasi_100nodes_network.node[2].core_layer 	slots_sent[face$o[1]->client[2]] 	125423303
scalar barabasi_100nodes_network.node[2].core_layer 	slots_sent[face$o[2]->node[0]] 	2153922426
scalar barabasi_100nodes_network.node[2].core_layer 	slots_sent[face$o[3]->node[3]] 	139765084
scalar barabasi_100nodes_network.node[2].core_layer 	slots_sent[face$o[4]->node[4]] 	380626875
scalar barabasi_100nodes_network.node[2].core_layer 	slots_sent[face$o[5]->node[6]] 	101291623
scalar barabasi_100nodes_network.node[2].core_layer 	slots_sent[face$o[6]->node[7]] 	948470048
scalar barabasi_100nodes_network.node[2].core_layer 	slots_sent[face$o[7]->node[8]] 	735073672
scalar barabasi_100nodes_network.node[2].core_layer 	slots_sent[face$o[8]->node[13]] 	311602831
scalar barabasi_100nodes_network.node[2].core_layer 	slots_sent[face$o[9]->node[16]] 	644606867
scalar barabasi_100nodes_network.node[2].core_layer 	slots_sent[face$o[10]->node[18]] 	320695815
scalar barabasi_100nodes_network.node[2].core_layer 	slots_sent[face$o[11]->node[25]] 	137780778
scalar barabasi_100nodes_network.node[2].core_layer 	slots_sent[face$o[12]->node[26]] 	326204169
scalar barabasi_100nodes_network.node[2].core_layer 	slots_sent[face$o[13]->node[29]] 	71738634
scalar barabasi_100nodes_network.node[2].core_layer 	slots_sent[face$o[14]->node[32]] 	286434236
scalar barabasi_100nodes_network.node[2].core_layer 	slots_sent[face$o[15]->node[33]] 	100368612
scalar barabasi_100nodes_network.node[2].core_layer 	slots_sent[face$o[16]->node[34]] 	101344443
scalar barabasi_100nodes_network.node[2].core_layer 	slots_sent[face$o[17]->node[36]] 	194702794
scalar barabasi_100nodes_network.node[2].core_layer 	slots_sent[face$o[18]->node[41]] 	596960223
scalar barabasi_100nodes_network.node[2].core_layer 	slots_sent[face$o[19]->node[45]] 	100085436
scalar barabasi_100nodes_network.node[2].core_layer 	slots_sent[face$o[20]->node[59]] 	100662556
scalar barabasi_100nodes_network.node[2].core_layer 	slots_sent[face$o[21]->node[62]] 	235665786
scalar barabasi_100nodes_network.node[2].core_layer 	slots_sent[face$o[22]->node[79]] 	100951805
scalar barabasi_100nodes_network.node[2].content_store 	p_hit[2] 	0.038376556181208
scalar barabasi_100nodes_network.node[2].content_store 	hits[2] 	662646
scalar barabasi_100nodes_network.node[2].content_store 	misses[2] 	16604302
scalar barabasi_100nodes_network.node[2].content_store 	decision_yes[2] 	5998528
scalar barabasi_100nodes_network.node[2].content_store 	decision_no[2] 	5342950
scalar barabasi_100nodes_network.node[2].content_store 	decision_ratio[2] 	0.52890178863813
scalar barabasi_100nodes_network.node[2].proactive_component 	hdistance[2].proactive_component 	2.9183743535018
scalar barabasi_100nodes_network.node[2].proactive_component 	downloads[2].proactive_component 	6407986
scalar barabasi_100nodes_network.node[2].proactive_component 	avg_time[2].proactive_component 	0
scalar barabasi_100nodes_network.node[3].core_layer 	interests[3] 	471488
scalar barabasi_100nodes_network.node[3].core_layer 	repo_load[3] 	142161
scalar barabasi_100nodes_network.node[3].core_layer 	data[3] 	198855
scalar barabasi_100nodes_network.node[3].core_layer 	slots_sent[face$o[1]->client[3]] 	119802741
scalar barabasi_100nodes_network.node[3].core_layer 	slots_sent[face$o[2]->node[2]] 	0
scalar barabasi_100nodes_network.node[3].core_layer 	slots_sent[face$o[3]->node[52]] 	101194707
scalar barabasi_100nodes_network.node[3].content_store 	p_hit[3] 	0.1865667843084
scalar barabasi_100nodes_network.node[3].content_store 	hits[3] 	87964
scalar barabasi_100nodes_network.node[3].content_store 	misses[3] 	383524
scalar barabasi_100nodes_network.node[3].content_store 	decision_yes[3] 	112352
scalar barabasi_100nodes_network.node[3].content_store 	decision_no[3] 	228664
scalar barabasi_100nodes_network.node[3].content_store 	decision_ratio[3] 	0.32946254721186
scalar barabasi_100nodes_network.node[3].proactive_component 	hdistance[3].proactive_component 	2.9548909600941
scalar barabasi_100nodes_network.node[3].proactive_component 	downloads[3].proactive_component 	176816
scalar barabasi_100nodes_network.node[3].proactive_component 	avg_time[3].proactive_component 	0
scalar barabasi_100nodes_network.node[4].core_layer 	interests[4] 	1242038
scalar barabasi_100nodes_network.node[4].core_layer 	repo_load[4] 	365956
scalar barabasi_100nodes_network.node[4].core_layer 	data[4] 	556987
scalar barabasi_100nodes_network.node[4].core_layer 	slots_sent[face$o[1]->client[4]] 	119022837
scalar barabasi_100nodes_network.node[4].core_layer 	slots_sent[face$o[2]->node[2]] 	0
scalar barabasi_100nodes_network.node[4].core_layer 	slots_sent[face$o[3]->node[27]] 	195776574
scalar barabasi_100nodes_network.node[4].core_layer 	slots_sent[face$o[4]->node[30]] 	169112658
scalar barabasi_100nodes_network.node[4].core_layer 	slots_sent[face$o[5]->node[85]] 	101231783
scalar barabasi_100nodes_network.node[4].content_store 	p_hit[4] 	0.092927913638713
scalar barabasi_100nodes_network.node[4].content_store 	hits[4] 	115420
scalar barabasi_100nodes_network.node[4].content_store 	misses[4] 	1126618
scalar barabasi_100nodes_network.node[4].content_store 	decision_yes[4] 	304525
scalar barabasi_100nodes_network.node[4].content_store 	decision_no[4] 	618418
scalar barabasi_100nodes_network.node[4].content_store 	decision_ratio[4] 	0.32994995357243
scalar barabasi_100nodes_network.node[4].proactive_component 	hdistance[4].proactive_component 	2.8906645743564
scalar barabasi_100nodes_network.node[4].proactive_component 	downloads[4].proactive_component 	463921
scalar barabasi_100nodes_network.node[4].proactive_component 	avg_time[4].proactive_component 	0
scalar barabasi_100nodes_network.node[5].core_layer 	interests[5] 	826356
scalar barabasi_100nodes_network.node[5].core_layer 	data[5] 	538310
scalar barabasi_100nodes_network.node[5].core_layer 	slots_sent[face$o[1]->client[5]] 	143478215
scalar barabasi_100nodes_network.node[5].core_layer 	slots_sent[face$o[2]->node[0]] 	0
scalar barabasi_100nodes_network.node[5].core_layer 	slots_sent[face$o[3]->node[9]] 	100350349
scalar barabasi_100nodes_network.node[5].core_layer 	slots_sent[face$o[4]->node[35]] 	194057746
scalar barabasi_100nodes_network.node[5].content_store 	p_hit[5] 	0.13966740726757
scalar barabasi_100nodes_network.node[5].content_store 	hits[5] 	115415
scalar barabasi_100nodes_network.node[5].content_store 	misses[5] 	710941
scalar barabasi_100nodes_network.node[5].content_store 	decision_yes[5] 	302647
scalar barabasi_100nodes_network.node[5].content_store 	decision_no[5] 	235663
scalar barabasi_100nodes_network.node[5].content_store 	decision_ratio[5] 	0.56221693819546
scalar barabasi_100nodes_network.node[5].proactive_component 	hdistance[5].proactive_component 	4.9690904708909
scalar barabasi_100nodes_network.node[5].proactive_component 	downloads[5].proactive_component 	282146
scalar barabasi_100nodes_network.node[5].proactive_component 	avg_time[5].proactive_component 	0
scalar barabasi_100nodes_network.node[6].core_layer 	interests[6] 	243706
scalar barabasi_100nodes_network.node[6].core_layer 	data[6] 	144709
scalar barabasi_100nodes_network.node[6].core_layer 	slots_sent[face$o[1]->client[6]] 	142903342
scalar barabasi_100nodes_network.node[6].core_layer 	slots_sent[face$o[2]->node[2]] 	0
scalar barabasi_100nodes_network.node[6].content_store 	p_hit[6] 	0.40621486545264
scalar barabasi_100nodes_network.node[6].content_store 	hits[6] 	98997
scalar barabasi_100nodes_network.node[6].content_store 	misses[6] 	144709
scalar barabasi_100nodes_network.node[6].content_store 	decision_yes[6] 	81369
scalar barabasi_100nodes_network.node[6].content_store 	decision_no[6] 	63340
scalar barabasi_100nodes_network.node[6].content_store 	decision_ratio[6] 	0.56229398309711
scalar barabasi_100nodes_network.node[6].proactive_component 	hdistance[6].proactive_component 	3.9559652557852
scalar barabasi_100nodes_network.node[6].proactive_component 	downloads[6].proactive_component 	76099
scalar barabasi_100nodes_network.node[6].proactive_component 	avg_time[6].proactive_component 	0
scalar barabasi_100nodes_network.node[7].core_layer 	interests[7] 	6156135
scalar barabasi_100nodes_network.node[7].core_layer 	data[7] 	4020030
scalar barabasi_100nodes_network.node[7].core_layer 	slots_sent[face$o[1]->client[7]] 	131156036
scalar barabasi_100nodes_network.node[7].core_layer 	slots_sent[face$o[2]->node[2]] 	1750997393
scalar barabasi_100nodes_network.node[7].core_layer 	slots_sent[face$o[3]->node[23]] 	531009954
scalar barabasi_100nodes_network.node[7].core_layer 	slots_sent[face$o[4]->node[31]] 	301774380
scalar barabasi_100nodes_network.node[7].core_layer 	slots_sent[face$o[5]->node[49]] 	101181561
scalar barabasi_100nodes_network.node[7].core_layer 	slots_sent[face$o[6]->node[90]] 	101020649
scalar barabasi_100nodes_network.node[7].content_store 	p_hit[7] 	0.048622552949212
scalar barabasi_100nodes_network.node[7].content_store 	hits[7] 	299327
scalar barabasi_100nodes_network.node[7].content_store 	misses[7] 	5856808
scalar barabasi_100nodes_network.node[7].content_store 	decision_yes[7] 	2109972
scalar barabasi_100nodes_network.node[7].content_store 	decision_no[7] 	1910058
scalar barabasi_100nodes_network.node[7].content_store 	decision_ratio[7] 	0.52486473981537
scalar barabasi_100nodes_network.node[7].proactive_component 	hdistance[7].proactive_component 	3.1952700832174
scalar barabasi_100nodes_network.node[7].proactive_component 	downloads[7].proactive_component 	2290146
scalar barabasi_100nodes_network.node[7].proactive_component 	avg_time[7].proactive_component 	0
scalar barabasi_100nodes_network.node[8].core_layer 	interests[8] 	1630857
scalar barabasi_100nodes_network.node[8].core_layer 	data[8] 	1067003
scalar barabasi_100nodes_network.node[8].core_layer 	slots_sent[face$o[1]->client[8]] 	139360201
scalar barabasi_100nodes_network.node[8].core_layer 	slots_sent[face$o[2]->node[2]] 	0
scalar barabasi_100nodes_network.node[8].core_layer 	slots_sent[face$o[3]->node[12]] 	100136319
scalar barabasi_100nodes_network.node[8].core_layer 	slots_sent[face$o[4]->node[14]] 	100117616
scalar barabasi_100nodes_network.node[8].core_layer 	slots_sent[face$o[5]->node[17]] 	100179473
scalar barabasi_100nodes_network.node[8].core_layer 	slots_sent[face$o[6]->node[39]] 	194182663
scalar barabasi_100nodes_network.node[8].core_layer 	slots_sent[face$o[7]->node[61]] 	100528162
scalar barabasi_100nodes_network.node[8].core_layer 	slots_sent[face$o[8]->node[66]] 	100659327
scalar barabasi_100nodes_network.node[8].content_store 	p_hit[8] 	0.093481525357527
scalar barabasi_100nodes_network.node[8].content_store 	hits[8] 	152455
scalar barabasi_100nodes_network.node[8].content_store 	misses[8] 	1478402
scalar barabasi_100nodes_network.node[8].content_store 	decision_yes[8] 	588916
scalar barabasi_100nodes_network.node[8].content_store 	decision_no[8] 	478087
scalar barabasi_100nodes_network.node[8].content_store 	decision_ratio[8] 	0.5519347180842
scalar barabasi_100nodes_network.node[8].proactive_component 	hdistance[8].proactive_component 	3.9614751468311
scalar barabasi_100nodes_network.node[8].proactive_component 	downloads[8].proactive_component 	573448
scalar barabasi_100nodes_network.node[8].proactive_component 	avg_time[8].proactive_component 	0
scalar barabasi_100nodes_network.node[9].core_layer 	interests[9] 	237674
scalar barabasi_100nodes_network.node[9].core_layer 	data[9] 	138732
scalar barabasi_100nodes_network.node[9].core_layer 	slots_sent[face$o[1]->client[9]] 	148497268
scalar barabasi_100nodes_network.node[9].core_layer 	slots_sent[face$o[2]->node[5]] 	0
scalar barabasi_100nodes_network.node[9].content_store 	p_hit[9] 	0.41629290540825
scalar barabasi_100nodes_network.node[9].content_store 	hits[9] 	98942
scalar barabasi_100nodes_network.node[9].content_store 	misses[9] 	138732
scalar barabasi_100nodes_network.node[9].content_store 	decision_yes[9] 	81047
scalar barabasi_100nodes_network.node[9].content_store 	decision_no[9] 	57685
scalar barabasi_100nodes_network.node[9].content_store 	decision_ratio[9] 	0.58419831041144
scalar barabasi_100nodes_network.node[9].proactive_component 	hdistance[9].proactive_component 	5.9715459503247
scalar barabasi_100nodes_network.node[9].proactive_component 	downloads[9].proactive_component 	69129
scalar barabasi_100nodes_network.node[9].proactive_component 	avg_time[9].proactive_component 	0
scalar barabasi_100nodes_network.node[10].core_layer 	interests[10] 	437766
scalar barabasi_100nodes_network.node[10].core_layer 	data[10] 	275615
scalar barabasi_100nodes_network.node[10].core_layer 	slots_sent[face$o[1]->client[10]] 	144642553
scalar barabasi_100nodes_network.node[10].core_layer 	slots_sent[face$o[2]->node[0]] 	0
scalar barabasi_100nodes_network.node[10].core_layer 	slots_sent[face$o[3]->node[71]] 	99774487
scalar barabasi_100nodes_network.node[10].content_store 	p_hit[10] 	0.23883307520456
scalar barabasi_100nodes_network.node[10].content_store 	hits[10] 	104553
scalar barabasi_100nodes_network.node[10].content_store 	misses[10] 	333213
scalar barabasi_100nodes_network.node[10].content_store 	decision_yes[10] 	156342
scalar barabasi_100nodes_network.node[10].content_store 	decision_no[10] 	119273
scalar barabasi_100nodes_network.node[10].content_store 	decision_ratio[10] 	0.56724779130309
scalar barabasi_100nodes_network.node[10].proactive_component 	hdistance[10].proactive_component 	4.9678702763282
scalar barabasi_100nodes_network.node[10].proactive_component 	downloads[10].proactive_component 	142765
scalar barabasi_100nodes_network.node[10].proactive_component 	avg_time[10].proactive_component 	0
scalar barabasi_100nodes_network.node[11].core_layer 	interests[11] 	240648
scalar barabasi_100nodes_network.node[11].core_layer 	data[11] 	141516
scalar barabasi_100nodes_network.node[11].core_layer 	slots_sent[face$o[1]->client[11]] 	145370924
scalar barabasi_100nodes_network.node[11].core_layer 	slots_sent[face$o[2]->node[0]] 	0
scalar barabasi_100nodes_network.node[11].content_store 	p_hit[11] 	0.41193776802633
scalar barabasi_100nodes_network.node[11].content_store 	hits[11] 	99132
scalar barabasi_100nodes_network.node[11].content_store 	misses[11] 	141516
scalar barabasi_100nodes_network.node[11].content_store 	decision_yes[11] 	80878
scalar barabasi_100nodes_network.node[11].content_store 	decision_no[11] 	60638
scalar barabasi_100nodes_network.node[11].content_store 	decision_ratio[11] 	0.57151134854009
scalar barabasi_100nodes_network.node[11].proactive_component 	hdistance[11].proactive_component 	4.9700142919965
scalar barabasi_100nodes_network.node[11].proactive_component 	downloads[11].proactive_component 	72768
scalar barabasi_100nodes_network.node[11].proactive_component 	avg_time[11].proactive_component 	0
scalar barabasi_100nodes_network.node[12].core_layer 	interests[12] 	238852
scalar barabasi_100nodes_network.node[12].core_layer 	data[12] 	139686
scalar barabasi_100nodes_network.node[12].core_layer 	slots_sent[face$o[1]->client[12]] 	147092898
scalar barabasi_100nodes_network.node[12].core_layer 	slots_sent[face$o[2]->node[8]] 	0
scalar barabasi_100nodes_network.node[12].content_store 	p_hit[12] 	0.41517759951769
scalar barabasi_100nodes_network.node[12].content_store 	hits[12] 	99166
scalar barabasi_100nodes_network.node[12].content_store 	misses[12] 	139686
scalar barabasi_100nodes_network.node[12].content_store 	decision_yes[12] 	80757
scalar barabasi_100nodes_network.node[12].content_store 	decision_no[12] 	58929
scalar barabasi_100nodes_network.node[12].content_store 	decision_ratio[12] 	0.57813238262961
scalar barabasi_100nodes_network.node[12].proactive_component 	hdistance[12].proactive_component 	4.9607715862108
scalar barabasi_100nodes_network.node[12].proactive_component 	downloads[12].proactive_component 	70867
scalar barabasi_100nodes_network.node[12].proactive_component 	avg_time[12].proactive_component 	0
scalar barabasi_100nodes_network.node[13].core_layer 	interests[13] 	4769428
scalar barabasi_100nodes_network.node[13].core_layer 	data[13] 	3043326
scalar barabasi_100nodes_network.node[13].core_layer 	slots_sent[face$o[1]->client[13]] 	128249109
scalar barabasi_100nodes_network.node[13].core_layer 	slots_sent[face$o[2]->node[2]] 	1821193049
scalar barabasi_100nodes_network.node[13].core_layer 	slots_sent[face$o[3]->node[67]] 	71706607
scalar barabasi_100nodes_network.node[13].core_layer 	slots_sent[face$o[4]->node[78]] 	207019097
scalar barabasi_100nodes_network.node[13].content_store 	p_hit[13] 	0.064479220569007
scalar barabasi_100nodes_network.node[13].content_store 	hits[13] 	307529
scalar barabasi_100nodes_network.node[13].content_store 	misses[13] 	4461899
scalar barabasi_100nodes_network.node[13].content_store 	decision_yes[13] 	1549255
scalar barabasi_100nodes_network.node[13].content_store 	decision_no[13] 	1494071
scalar barabasi_100nodes_network.node[13].content_store 	decision_ratio[13] 	0.509066396436
scalar barabasi_100nodes_network.node[13].proactive_component 	hdistance[13].proactive_component 	2.2516801067769
scalar barabasi_100nodes_network.node[13].proactive_component 	downloads[13].proactive_component 	1792148
scalar barabasi_100nodes_network.node[13].proactive_component 	avg_time[13].proactive_component 	0
scalar barabasi_100nodes_network.node[14].core_layer 	interests[14] 	238866
scalar barabasi_100nodes_network.node[14].core_layer 	data[14] 	139595
scalar barabasi_100nodes_network.node[14].core_layer 	slots_sent[face$o[1]->client[14]] 	147292424
scalar barabasi_100nodes_network.node[14].core_layer 	slots_sent[face$o[2]->node[8]] 	0
scalar barabasi_100nodes_network.node[14].content_store 	p_hit[14] 	0.41559284284913
scalar barabasi_100nodes_network.node[14].content_store 	hits[14] 	99271
scalar barabasi_100nodes_network.node[14].content_store 	misses[14] 	139595
scalar barabasi_100nodes_network.node[14].content_store 	decision_yes[14] 	80748
scalar barabasi_100nodes_network.node[14].content_store 	decision_no[14] 	58847
scalar barabasi_100nodes_network.node[14].content_store 	decision_ratio[14] 	0.57844478670439
scalar barabasi_100nodes_network.node[14].proactive_component 	hdistance[14].proactive_component 	4.9637560147183
scalar barabasi_100nodes_network.node[14].proactive_component 	downloads[14].proactive_component 	70660
scalar barabasi_100nodes_network.node[14].proactive_component 	avg_time[14].proactive_component 	0
scalar barabasi_100nodes_network.node[15].core_layer 	interests[15] 	634074
scalar barabasi_100nodes_network.node[15].core_layer 	data[15] 	406593
scalar barabasi_100nodes_network.node[15].core_layer 	slots_sent[face$o[1]->client[15]] 	144512943
scalar barabasi_100nodes_network.node[15].core_layer 	slots_sent[face$o[2]->node[0]] 	0
scalar barabasi_100nodes_network.node[15].core_layer 	slots_sent[face$o[3]->node[40]] 	100156295
scalar barabasi_100nodes_network.node[15].core_layer 	slots_sent[face$o[4]->node[56]] 	99915098
scalar barabasi_100nodes_network.node[15].content_store 	p_hit[15] 	0.17725691323095
scalar barabasi_100nodes_network.node[15].content_store 	hits[15] 	112394
scalar barabasi_100nodes_network.node[15].content_store 	misses[15] 	521680
scalar barabasi_100nodes_network.node[15].content_store 	decision_yes[15] 	229610
scalar barabasi_100nodes_network.node[15].content_store 	decision_no[15] 	176983
scalar barabasi_100nodes_network.node[15].content_store 	decision_ratio[15] 	0.56471705120354
scalar barabasi_100nodes_network.node[15].proactive_component 	hdistance[15].proactive_component 	4.9703512790245
scalar barabasi_100nodes_network.node[15].proactive_component 	downloads[15].proactive_component 	212623
scalar barabasi_100nodes_network.node[15].proactive_component 	avg_time[15].proactive_component 	0
scalar barabasi_100nodes_network.node[16].core_layer 	interests[16] 	1407683
scalar barabasi_100nodes_network.node[16].core_layer 	data[16] 	935003
scalar barabasi_100nodes_network.node[16].core_layer 	slots_sent[face$o[1]->client[16]] 	139767167
scalar barabasi_100nodes_network.node[16].core_layer 	slots_sent[face$o[2]->node[2]] 	0
scalar barabasi_100nodes_network.node[16].core_layer 	slots_sent[face$o[3]->node[19]] 	467925473
scalar barabasi_100nodes_network.node[16].core_layer 	slots_sent[face$o[4]->node[20]] 	100139953
scalar barabasi_100nodes_network.node[16].content_store 	p_hit[16] 	0.085453187969166
scalar barabasi_100nodes_network.node[16].content_store 	hits[16] 	120291
scalar barabasi_100nodes_network.node[16].content_store 	misses[16] 	1287392
scalar barabasi_100nodes_network.node[16].content_store 	decision_yes[16] 	516501
scalar barabasi_100nodes_network.node[16].content_store 	decision_no[16] 	418502
scalar barabasi_100nodes_network.node[16].content_store 	decision_ratio[16] 	0.55240571420626
scalar barabasi_100nodes_network.node[16].proactive_component 	hdistance[16].proactive_component 	3.9610882057849
scalar barabasi_100nodes_network.node[16].proactive_component 	downloads[16].proactive_component 	501339
scalar barabasi_100nodes_network.node[16].proactive_component 	avg_time[16].proactive_component 	0
scalar barabasi_100nodes_network.node[17].core_layer 	interests[17] 	238606
scalar barabasi_100nodes_network.node[17].core_layer 	data[17] 	139456
scalar barabasi_100nodes_network.node[17].core_layer 	slots_sent[face$o[1]->client[17]] 	147458144
scalar barabasi_100nodes_network.node[17].core_layer 	slots_sent[face$o[2]->node[8]] 	0
scalar barabasi_100nodes_network.node[17].content_store 	p_hit[17] 	0.41553858662397
scalar barabasi_100nodes_network.node[17].content_store 	hits[17] 	99150
scalar barabasi_100nodes_network.node[17].content_store 	misses[17] 	139456
scalar barabasi_100nodes_network.node[17].content_store 	decision_yes[17] 	80819
scalar barabasi_100nodes_network.node[17].content_store 	decision_no[17] 	58637
scalar barabasi_100nodes_network.node[17].content_store 	decision_ratio[17] 	0.57953046122074
scalar barabasi_100nodes_network.node[17].proactive_component 	hdistance[17].proactive_component 	4.9669416801339
scalar barabasi_100nodes_network.node[17].proactive_component 	downloads[17].proactive_component 	70542
scalar barabasi_100nodes_network.node[17].proactive_component 	avg_time[17].proactive_component 	0
scalar barabasi_100nodes_network.node[18].core_layer 	interests[18] 	4926298
scalar barabasi_100nodes_network.node[18].core_layer 	data[18] 	3141614
scalar barabasi_100nodes_network.node[18].core_layer 	slots_sent[face$o[1]->client[18]] 	128265956
scalar barabasi_100nodes_network.node[18].core_layer 	slots_sent[face$o[2]->node[2]] 	1904868691
scalar barabasi_100nodes_network.node[18].core_layer 	slots_sent[face$o[3]->node[53]] 	101295833
scalar barabasi_100nodes_network.node[18].core_layer 	slots_sent[face$o[4]->node[68]] 	71810032
scalar barabasi_100nodes_network.node[18].core_layer 	slots_sent[face$o[5]->node[72]] 	100517162
scalar barabasi_100nodes_network.node[18].content_store 	p_hit[18] 	0.064998300955403
scalar barabasi_100nodes_network.node[18].content_store 	hits[18] 	320201
scalar barabasi_100nodes_network.node[18].content_store 	misses[18] 	4606097
scalar barabasi_100nodes_network.node[18].content_store 	decision_yes[18] 	1600776
scalar barabasi_100nodes_network.node[18].content_store 	decision_no[18] 	1540838
scalar barabasi_100nodes_network.node[18].content_store 	decision_ratio[18] 	0.50953936416122
scalar barabasi_100nodes_network.node[18].proactive_component 	hdistance[18].proactive_component 	2.2478618368526
scalar barabasi_100nodes_network.node[18].proactive_component 	downloads[18].proactive_component 	1847497
scalar barabasi_100nodes_network.node[18].proactive_component 	avg_time[18].proactive_component 	0
scalar barabasi_100nodes_network.node[19].core_layer 	interests[19] 	1028876
scalar barabasi_100nodes_network.node[19].core_layer 	data[19] 	669266
scalar barabasi_100nodes_network.node[19].core_layer 	slots_sent[face$o[1]->client[19]] 	143050371
scalar barabasi_100nodes_network.node[19].core_layer 	slots_sent[face$o[2]->node[16]] 	0
scalar barabasi_100nodes_network.node[19].core_layer 	slots_sent[face$o[3]->node[63]] 	100524933
scalar barabasi_100nodes_network.node[19].core_layer 	slots_sent[face$o[4]->node[70]] 	101008762
scalar barabasi_100nodes_network.node[19].core_layer 	slots_sent[face$o[5]->node[80]] 	100160102
scalar barabasi_100nodes_network.node[19].core_layer 	slots_sent[face$o[6]->node[89]] 	100393526
scalar barabasi_100nodes_network.node[19].content_store 	p_hit[19] 	0.12517640609753
scalar barabasi_100nodes_network.node[19].content_store 	hits[19] 	128791
scalar barabasi_100nodes_network.node[19].content_store 	misses[19] 	900085
scalar barabasi_100nodes_network.node[19].content_store 	decision_yes[19] 	375819
scalar barabasi_100nodes_network.node[19].content_store 	decision_no[19] 	293447
scalar barabasi_100nodes_network.node[19].content_store 	decision_ratio[19] 	0.56153905920815
scalar barabasi_100nodes_network.node[19].proactive_component 	hdistance[19].proactive_component 	4.9653616128179
scalar barabasi_100nodes_network.node[19].proactive_component 	downloads[19].proactive_component 	351633
scalar barabasi_100nodes_network.node[19].proactive_component 	avg_time[19].proactive_component 	0
scalar barabasi_100nodes_network.node[20].core_layer 	interests[20] 	238549
scalar barabasi_100nodes_network.node[20].core_layer 	data[20] 	139701
scalar barabasi_100nodes_network.node[20].core_layer 	slots_sent[face$o[1]->client[20]] 	146710255
scalar barabasi_100nodes_network.node[20].core_layer 	slots_sent[face$o[2]->node[16]] 	0
scalar barabasi_100nodes_network.node[20].content_store 	p_hit[20] 	0.41437189005194
scalar barabasi_100nodes_network.node[20].content_store 	hits[20] 	98848
scalar barabasi_100nodes_network.node[20].content_store 	misses[20] 	139701
scalar barabasi_100nodes_network.node[20].content_store 	decision_yes[20] 	80759
scalar barabasi_100nodes_network.node[20].content_store 	decision_no[20] 	58942
scalar barabasi_100nodes_network.node[20].content_store 	decision_ratio[20] 	0.57808462358895
scalar barabasi_100nodes_network.node[20].proactive_component 	hdistance[20].proactive_component 	4.9623594313601
scalar barabasi_100nodes_network.node[20].proactive_component 	downloads[20].proactive_component 	70695
scalar barabasi_100nodes_network.node[20].proactive_component 	avg_time[20].proactive_component 	0
scalar barabasi_100nodes_network.node[21].core_layer 	interests[21] 	634197
scalar barabasi_100nodes_network.node[21].core_layer 	data[21] 	407123
scalar barabasi_100nodes_network.node[21].core_layer 	slots_sent[face$o[1]->client[21]] 	143642487
scalar barabasi_100nodes_network.node[21].core_layer 	slots_sent[face$o[2]->node[0]] 	0
scalar barabasi_100nodes_network.node[21].core_layer 	slots_sent[face$o[3]->node[24]] 	100252100
scalar barabasi_100nodes_network.node[21].core_layer 	slots_sent[face$o[4]->node[57]] 	100554040
scalar barabasi_100nodes_network.node[21].content_store 	p_hit[21] 	0.17679049254411
scalar barabasi_100nodes_network.node[21].content_store 	hits[21] 	112120
scalar barabasi_100nodes_network.node[21].content_store 	misses[21] 	522077
scalar barabasi_100nodes_network.node[21].content_store 	decision_yes[21] 	230015
scalar barabasi_100nodes_network.node[21].content_store 	decision_no[21] 	177108
scalar barabasi_100nodes_network.node[21].content_store 	decision_ratio[21] 	0.5649766778099
scalar barabasi_100nodes_network.node[21].proactive_component 	hdistance[21].proactive_component 	4.9698081396992
scalar barabasi_100nodes_network.node[21].proactive_component 	downloads[21].proactive_component 	212342
scalar barabasi_100nodes_network.node[21].proactive_component 	avg_time[21].proactive_component 	0
scalar barabasi_100nodes_network.node[22].core_layer 	interests[22] 	239654
scalar barabasi_100nodes_network.node[22].core_layer 	data[22] 	141371
scalar barabasi_100nodes_network.node[22].core_layer 	slots_sent[face$o[1]->client[22]] 	144780596
scalar barabasi_100nodes_network.node[22].core_layer 	slots_sent[face$o[2]->node[0]] 	0
scalar barabasi_100nodes_network.node[22].content_store 	p_hit[22] 	0.41010373288157
scalar barabasi_100nodes_network.node[22].content_store 	hits[22] 	98283
scalar barabasi_100nodes_network.node[22].content_store 	misses[22] 	141371
scalar barabasi_100nodes_network.node[22].content_store 	decision_yes[22] 	80988
scalar barabasi_100nodes_network.node[22].content_store 	decision_no[22] 	60383
scalar barabasi_100nodes_network.node[22].content_store 	decision_ratio[22] 	0.57287562512821
scalar barabasi_100nodes_network.node[22].proactive_component 	hdistance[22].proactive_component 	4.9658113769155
scalar barabasi_100nodes_network.node[22].proactive_component 	downloads[22].proactive_component 	72568
scalar barabasi_100nodes_network.node[22].proactive_component 	avg_time[22].proactive_component 	0
scalar barabasi_100nodes_network.node[23].core_layer 	interests[23] 	5355853
scalar barabasi_100nodes_network.node[23].core_layer 	data[23] 	3540322
scalar barabasi_100nodes_network.node[23].core_layer 	slots_sent[face$o[1]->client[23]] 	129480724
scalar barabasi_100nodes_network.node[23].core_layer 	slots_sent[face$o[2]->node[7]] 	1704873076
scalar barabasi_100nodes_network.node[23].core_layer 	slots_sent[face$o[3]->node[46]] 	194545931
scalar barabasi_100nodes_network.node[23].core_layer 	slots_sent[face$o[4]->node[47]] 	71698622
scalar barabasi_100nodes_network.node[23].core_layer 	slots_sent[face$o[5]->node[51]] 	100560653
scalar barabasi_100nodes_network.node[23].core_layer 	slots_sent[face$o[6]->node[83]] 	101116735
scalar barabasi_100nodes_network.node[23].core_layer 	slots_sent[face$o[7]->node[86]] 	100370872
scalar barabasi_100nodes_network.node[23].content_store 	p_hit[23] 	0.031524950367383
scalar barabasi_100nodes_network.node[23].content_store 	hits[23] 	168843
scalar barabasi_100nodes_network.node[23].content_store 	misses[23] 	5187010
scalar barabasi_100nodes_network.node[23].content_store 	decision_yes[23] 	1818015
scalar barabasi_100nodes_network.node[23].content_store 	decision_no[23] 	1722307
scalar barabasi_100nodes_network.node[23].content_store 	decision_ratio[23] 	0.5135168495973
scalar barabasi_100nodes_network.node[23].proactive_component 	hdistance[23].proactive_component 	2.5053610981172
scalar barabasi_100nodes_network.node[23].proactive_component 	downloads[23].proactive_component 	2065062
scalar barabasi_100nodes_network.node[23].proactive_component 	avg_time[23].proactive_component 	0
scalar barabasi_100nodes_network.node[24].core_layer 	interests[24] 	237348
scalar barabasi_100nodes_network.node[24].core_layer 	data[24] 	138251
scalar barabasi_100nodes_network.node[24].core_layer 	slots_sent[face$o[1]->client[24]] 	149086382
scalar barabasi_100nodes_network.node[24].core_layer 	slots_sent[face$o[2]->node[21]] 	0
scalar barabasi_100nodes_network.node[24].content_store 	p_hit[24] 	0.4175177376679
scalar barabasi_100nodes_network.node[24].content_store 	hits[24] 	99097
scalar barabasi_100nodes_network.node[24].content_store 	misses[24] 	138251
scalar barabasi_100nodes_network.node[24].content_store 	decision_yes[24] 	81000
scalar barabasi_100nodes_network.node[24].content_store 	decision_no[24] 	57251
scalar barabasi_100nodes_network.node[24].content_store 	decision_ratio[24] 	0.58589087963197
scalar barabasi_100nodes_network.node[24].proactive_component 	hdistance[24].proactive_component 	5.9739344429397
scalar barabasi_100nodes_network.node[24].proactive_component 	downloads[24].proactive_component 	68673
scalar barabasi_100nodes_network.node[24].proactive_component 	avg_time[24].proactive_component 	0
scalar barabasi_100nodes_network.node[25].core_layer 	interests[25] 	5275776
scalar barabasi_100nodes_network.node[25].core_layer 	repo_load[25] 	4952151
scalar barabasi_100nodes_network.node[25].core_layer 	data[25] 	196276
scalar barabasi_100nodes_network.node[25].core_layer 	slots_sent[face$o[1]->client[25]] 	119417362
scalar barabasi_100nodes_network.node[25].core_layer 	slots_sent[face$o[2]->node[2]] 	2057518043
scalar barabasi_100nodes_network.node[25].core_layer 	slots_sent[face$o[3]->node[38]] 	71170385
scalar barabasi_100nodes_network.node[25].content_store 	p_hit[25] 	0.016328403631997
scalar barabasi_100nodes_network.node[25].content_store 	hits[25] 	86145
scalar barabasi_100nodes_network.node[25].content_store 	misses[25] 	5189631
scalar barabasi_100nodes_network.node[25].content_store 	decision_yes[25] 	110734
scalar barabasi_100nodes_network.node[25].content_store 	decision_no[25] 	5037693
scalar barabasi_100nodes_network.node[25].content_store 	decision_ratio[25] 	0.02150831700634
scalar barabasi_100nodes_network.node[25].proactive_component 	hdistance[25].proactive_component 	1.1634368470048
scalar barabasi_100nodes_network.node[25].proactive_component 	downloads[25].proactive_component 	2098982
scalar barabasi_100nodes_network.node[25].proactive_component 	avg_time[25].proactive_component 	0
scalar barabasi_100nodes_network.node[26].core_layer 	interests[26] 	728574
scalar barabasi_100nodes_network.node[26].core_layer 	data[26] 	471762
scalar barabasi_100nodes_network.node[26].core_layer 	slots_sent[face$o[1]->client[26]] 	140797533
scalar barabasi_100nodes_network.node[26].core_layer 	slots_sent[face$o[2]->node[2]] 	0
scalar barabasi_100nodes_network.node[26].core_layer 	slots_sent[face$o[3]->node[77]] 	139595498
scalar barabasi_100nodes_network.node[26].core_layer 	slots_sent[face$o[4]->node[91]] 	100143157
scalar barabasi_100nodes_network.node[26].content_store 	p_hit[26] 	0.15280122540744
scalar barabasi_100nodes_network.node[26].content_store 	hits[26] 	111327
scalar barabasi_100nodes_network.node[26].content_store 	misses[26] 	617247
scalar barabasi_100nodes_network.node[26].content_store 	decision_yes[26] 	261507
scalar barabasi_100nodes_network.node[26].content_store 	decision_no[26] 	210255
scalar barabasi_100nodes_network.node[26].content_store 	decision_ratio[26] 	0.55431976293131
scalar barabasi_100nodes_network.node[26].proactive_component 	hdistance[26].proactive_component 	3.9533823086555
scalar barabasi_100nodes_network.node[26].proactive_component 	downloads[26].proactive_component 	252372
scalar barabasi_100nodes_network.node[26].proactive_component 	avg_time[26].proactive_component 	0
scalar barabasi_100nodes_network.node[27].core_layer 	interests[27] 	448656
scalar barabasi_100nodes_network.node[27].core_layer 	data[27] 	283408
scalar barabasi_100nodes_network.node[27].core_layer 	slots_sent[face$o[1]->client[27]] 	140376046
scalar barabasi_100nodes_network.node[27].core_layer 	slots_sent[face$o[2]->node[4]] 	0
scalar barabasi_100nodes_network.node[27].core_layer 	slots_sent[face$o[3]->node[99]] 	100635782
scalar barabasi_100nodes_network.node[27].content_store 	p_hit[27] 	0.23335695945223
scalar barabasi_100nodes_network.node[27].content_store 	hits[27] 	104697
scalar barabasi_100nodes_network.node[27].content_store 	misses[27] 	343959
scalar barabasi_100nodes_network.node[27].content_store 	decision_yes[27] 	156922
scalar barabasi_100nodes_network.node[27].content_store 	decision_no[27] 	126486
scalar barabasi_100nodes_network.node[27].content_store 	decision_ratio[27] 	0.55369643764467
scalar barabasi_100nodes_network.node[27].proactive_component 	hdistance[27].proactive_component 	4.0413948093375
scalar barabasi_100nodes_network.node[27].proactive_component 	downloads[27].proactive_component 	151734
scalar barabasi_100nodes_network.node[27].proactive_component 	avg_time[27].proactive_component 	0
scalar barabasi_100nodes_network.node[28].core_layer 	interests[28] 	240552
scalar barabasi_100nodes_network.node[28].core_layer 	data[28] 	141212
scalar barabasi_100nodes_network.node[28].core_layer 	slots_sent[face$o[1]->client[28]] 	145578354
scalar barabasi_100nodes_network.node[28].core_layer 	slots_sent[face$o[2]->node[0]] 	0
scalar barabasi_100nodes_network.node[28].content_store 	p_hit[28] 	0.41296684292793
scalar barabasi_100nodes_network.node[28].content_store 	hits[28] 	99340
scalar barabasi_100nodes_network.node[28].content_store 	misses[28] 	141212
scalar barabasi_100nodes_network.node[28].content_store 	decision_yes[28] 	80717
scalar barabasi_100nodes_network.node[28].content_store 	decision_no[28] 	60495
scalar barabasi_100nodes_network.node[28].content_store 	decision_ratio[28] 	0.57160156360649
scalar barabasi_100nodes_network.node[28].proactive_component 	hdistance[28].proactive_component 	4.9652468684975
scalar barabasi_100nodes_network.node[28].proactive_component 	downloads[28].proactive_component 	72569
scalar barabasi_100nodes_network.node[28].proactive_component 	avg_time[28].proactive_component 	0
scalar barabasi_100nodes_network.node[29].core_layer 	interests[29] 	262730
scalar barabasi_100nodes_network.node[29].core_layer 	repo_load[29] 	73426
scalar barabasi_100nodes_network.node[29].core_layer 	data[29] 	103840
scalar barabasi_100nodes_network.node[29].core_layer 	slots_sent[face$o[1]->client[29]] 	121069976
scalar barabasi_100nodes_network.node[29].core_layer 	slots_sent[face$o[2]->node[2]] 	0
scalar barabasi_100nodes_network.node[29].content_store 	p_hit[29] 	0.32529212499524
scalar barabasi_100nodes_network.node[29].content_store 	hits[29] 	85464
scalar barabasi_100nodes_network.node[29].content_store 	misses[29] 	177266
scalar barabasi_100nodes_network.node[29].content_store 	decision_yes[29] 	57502
scalar barabasi_100nodes_network.node[29].content_store 	decision_no[29] 	119764
scalar barabasi_100nodes_network.node[29].content_store 	decision_ratio[29] 	0.32438256631277
scalar barabasi_100nodes_network.node[29].proactive_component 	hdistance[29].proactive_component 	2.6449850344509
scalar barabasi_100nodes_network.node[29].proactive_component 	downloads[29].proactive_component 	99562
scalar barabasi_100nodes_network.node[29].proactive_component 	avg_time[29].proactive_component 	0
scalar barabasi_100nodes_network.node[30].core_layer 	interests[30] 	392378
scalar barabasi_100nodes_network.node[30].core_layer 	data[30] 	245619
scalar barabasi_100nodes_network.node[30].core_layer 	slots_sent[face$o[1]->client[30]] 	140181651
scalar barabasi_100nodes_network.node[30].core_layer 	slots_sent[face$o[2]->node[4]] 	0
scalar barabasi_100nodes_network.node[30].core_layer 	slots_sent[face$o[3]->node[88]] 	71659545
scalar barabasi_100nodes_network.node[30].content_store 	p_hit[30] 	0.25892634143606
scalar barabasi_100nodes_network.node[30].content_store 	hits[30] 	101597
scalar barabasi_100nodes_network.node[30].content_store 	misses[30] 	290781
scalar barabasi_100nodes_network.node[30].content_store 	decision_yes[30] 	135474
scalar barabasi_100nodes_network.node[30].content_store 	decision_no[30] 	110145
scalar barabasi_100nodes_network.node[30].content_store 	decision_ratio[30] 	0.55156156486265
scalar barabasi_100nodes_network.node[30].proactive_component 	hdistance[30].proactive_component 	3.8181481089098
scalar barabasi_100nodes_network.node[30].proactive_component 	downloads[30].proactive_component 	132146
scalar barabasi_100nodes_network.node[30].proactive_component 	avg_time[30].proactive_component 	0
scalar barabasi_100nodes_network.node[31].core_layer 	interests[31] 	667292
scalar barabasi_100nodes_network.node[31].core_layer 	data[31] 	435177
scalar barabasi_100nodes_network.node[31].core_layer 	slots_sent[face$o[1]->client[31]] 	141377825
scalar barabasi_100nodes_network.node[31].core_layer 	slots_sent[face$o[2]->node[7]] 	0
scalar barabasi_100nodes_network.node[31].core_layer 	slots_sent[face$o[3]->node[65]] 	205883881
scalar barabasi_100nodes_network.node[31].content_store 	p_hit[31] 	0.15409895518004
scalar barabasi_100nodes_network.node[31].content_store 	hits[31] 	102829
scalar barabasi_100nodes_network.node[31].content_store 	misses[31] 	564463
scalar barabasi_100nodes_network.node[31].content_store 	decision_yes[31] 	242040
scalar barabasi_100nodes_network.node[31].content_store 	decision_no[31] 	193137
scalar barabasi_100nodes_network.node[31].content_store 	decision_ratio[31] 	0.55618748233477
scalar barabasi_100nodes_network.node[31].proactive_component 	hdistance[31].proactive_component 	4.3718370790161
scalar barabasi_100nodes_network.node[31].proactive_component 	downloads[31].proactive_component 	231155
scalar barabasi_100nodes_network.node[31].proactive_component 	avg_time[31].proactive_component 	0
scalar barabasi_100nodes_network.node[32].core_layer 	interests[32] 	643027
scalar barabasi_100nodes_network.node[32].core_layer 	data[32] 	412291
scalar barabasi_100nodes_network.node[32].core_layer 	slots_sent[face$o[1]->client[32]] 	141844736
scalar barabasi_100nodes_network.node[32].core_layer 	slots_sent[face$o[2]->node[2]] 	0
scalar barabasi_100nodes_network.node[32].core_layer 	slots_sent[face$o[3]->node[43]] 	100754556
scalar barabasi_100nodes_network.node[32].core_layer 	slots_sent[face$o[4]->node[64]] 	100146195
scalar barabasi_100nodes_network.node[32].content_store 	p_hit[32] 	0.17555561430546
scalar barabasi_100nodes_network.node[32].content_store 	hits[32] 	112887
scalar barabasi_100nodes_network.node[32].content_store 	misses[32] 	530140
scalar barabasi_100nodes_network.node[32].content_store 	decision_yes[32] 	229808
scalar barabasi_100nodes_network.node[32].content_store 	decision_no[32] 	182483
scalar barabasi_100nodes_network.node[32].content_store 	decision_ratio[32] 	0.55739271533941
scalar barabasi_100nodes_network.node[32].proactive_component 	hdistance[32].proactive_component 	3.957629904221
scalar barabasi_100nodes_network.node[32].proactive_component 	downloads[32].proactive_component 	219046
scalar barabasi_100nodes_network.node[32].proactive_component 	avg_time[32].proactive_component 	0
scalar barabasi_100nodes_network.node[33].core_layer 	interests[33] 	242524
scalar barabasi_100nodes_network.node[33].core_layer 	data[33] 	143300
scalar barabasi_100nodes_network.node[33].core_layer 	slots_sent[face$o[1]->client[33]] 	143034132
scalar barabasi_100nodes_network.node[33].core_layer 	slots_sent[face$o[2]->node[2]] 	0
scalar barabasi_100nodes_network.node[33].content_store 	p_hit[33] 	0.40913064274051
scalar barabasi_100nodes_network.node[33].content_store 	hits[33] 	99224
scalar barabasi_100nodes_network.node[33].content_store 	misses[33] 	143300
scalar barabasi_100nodes_network.node[33].content_store 	decision_yes[33] 	80636
scalar barabasi_100nodes_network.node[33].content_store 	decision_no[33] 	62664
scalar barabasi_100nodes_network.node[33].content_store 	decision_ratio[33] 	0.5627076064201
scalar barabasi_100nodes_network.node[33].proactive_component 	hdistance[33].proactive_component 	3.9507939879972
scalar barabasi_100nodes_network.node[33].proactive_component 	downloads[33].proactive_component 	75316
scalar barabasi_100nodes_network.node[33].proactive_component 	avg_time[33].proactive_component 	0
scalar barabasi_100nodes_network.node[34].core_layer 	interests[34] 	243589
scalar barabasi_100nodes_network.node[34].core_layer 	data[34] 	144597
scalar barabasi_100nodes_network.node[34].core_layer 	slots_sent[face$o[1]->client[34]] 	143151051
scalar barabasi_100nodes_network.node[34].core_layer 	slots_sent[face$o[2]->node[2]] 	0
scalar barabasi_100nodes_network.node[34].content_store 	p_hit[34] 	0.40638945108359
scalar barabasi_100nodes_network.node[34].content_store 	hits[34] 	98992
scalar barabasi_100nodes_network.node[34].content_store 	misses[34] 	144597
scalar barabasi_100nodes_network.node[34].content_store 	decision_yes[34] 	81429
scalar barabasi_100nodes_network.node[34].content_store 	decision_no[34] 	63168
scalar barabasi_100nodes_network.node[34].content_store 	decision_ratio[34] 	0.56314446357808
scalar barabasi_100nodes_network.node[34].proactive_component 	hdistance[34].proactive_component 	3.952242935248
scalar barabasi_100nodes_network.node[34].proactive_component 	downloads[34].proactive_component 	75905
scalar barabasi_100nodes_network.node[34].proactive_component 	avg_time[34].proactive_component 	0
scalar barabasi_100nodes_network.node[35].core_layer 	interests[35] 	431928
scalar barabasi_100nodes_network.node[35].core_layer 	data[35] 	271384
scalar barabasi_100nodes_network.node[35].core_layer 	slots_sent[face$o[1]->client[35]] 	147670360
scalar barabasi_100nodes_network.node[35].core_layer 	slots_sent[face$o[2]->node[5]] 	0
scalar barabasi_100nodes_network.node[35].core_layer 	slots_sent[face$o[3]->node[50]] 	99600252
scalar barabasi_100nodes_network.node[35].content_store 	p_hit[35] 	0.24223944731529
scalar barabasi_100nodes_network.node[35].content_store 	hits[35] 	104630
scalar barabasi_100nodes_network.node[35].content_store 	misses[35] 	327298
scalar barabasi_100nodes_network.node[35].content_store 	decision_yes[35] 	156438
scalar barabasi_100nodes_network.node[35].content_store 	decision_no[35] 	114946
scalar barabasi_100nodes_network.node[35].content_store 	decision_ratio[35] 	0.57644518468296
scalar barabasi_100nodes_network.node[35].proactive_component 	hdistance[35].proactive_component 	5.971378538627
scalar barabasi_100nodes_network.node[35].proactive_component 	downloads[35].proactive_component 	137624
scalar barabasi_100nodes_network.node[35].proactive_component 	avg_time[35].proactive_component 	0
scalar barabasi_100nodes_network.node[36].core_layer 	interests[36] 	443282
scalar barabasi_100nodes_network.node[36].core_layer 	data[36] 	279499
scalar barabasi_100nodes_network.node[36].core_layer 	slots_sent[face$o[1]->client[36]] 	141548872
scalar barabasi_100nodes_network.node[36].core_layer 	slots_sent[face$o[2]->node[2]] 	0
scalar barabasi_100nodes_network.node[36].core_layer 	slots_sent[face$o[3]->node[75]] 	100494444
scalar barabasi_100nodes_network.node[36].content_store 	p_hit[36] 	0.23570097590247
scalar barabasi_100nodes_network.node[36].content_store 	hits[36] 	104482
scalar barabasi_100nodes_network.node[36].content_store 	misses[36] 	338800
scalar barabasi_100nodes_network.node[36].content_store 	decision_yes[36] 	156282
scalar barabasi_100nodes_network.node[36].content_store 	decision_no[36] 	123217
[...]
scalar barabasi_100nodes_network.client[8] 	avg_time[8].real 	0
scalar barabasi_100nodes_network.client[9] 	hdistance[9].real 	2.1991399474412
scalar barabasi_100nodes_network.client[9] 	downloads[9].real 	179989
scalar barabasi_100nodes_network.client[9] 	avg_time[9].real 	0
scalar barabasi_100nodes_network.client[10] 	hdistance[10].real 	1.9322368494017
scalar barabasi_100nodes_network.client[10] 	downloads[10].real 	180334
scalar barabasi_100nodes_network.client[10] 	avg_time[10].real 	0
scalar barabasi_100nodes_network.client[11] 	hdistance[11].real 	1.8843897561247
scalar barabasi_100nodes_network.client[11] 	downloads[11].real 	180010
scalar barabasi_100nodes_network.client[11] 	avg_time[11].real 	0
scalar barabasi_100nodes_network.client[12] 	hdistance[12].real 	1.8548934822118
scalar barabasi_100nodes_network.client[12] 	downloads[12].real 	179923
scalar barabasi_100nodes_network.client[12] 	avg_time[12].real 	0
scalar barabasi_100nodes_network.client[13] 	hdistance[13].real 	1.687712728797
scalar barabasi_100nodes_network.client[13] 	downloads[13].real 	178925
scalar barabasi_100nodes_network.client[13] 	avg_time[13].real 	0
scalar barabasi_100nodes_network.client[14] 	hdistance[14].real 	1.8537432159939
scalar barabasi_100nodes_network.client[14] 	downloads[14].real 	180019
scalar barabasi_100nodes_network.client[14] 	avg_time[14].real 	0
scalar barabasi_100nodes_network.client[15] 	hdistance[15].real 	1.9530719135375
scalar barabasi_100nodes_network.client[15] 	downloads[15].real 	180425
scalar barabasi_100nodes_network.client[15] 	avg_time[15].real 	0
scalar barabasi_100nodes_network.client[16] 	hdistance[16].real 	1.6554429733539
scalar barabasi_100nodes_network.client[16] 	downloads[16].real 	180214
scalar barabasi_100nodes_network.client[16] 	avg_time[16].real 	0
scalar barabasi_100nodes_network.client[17] 	hdistance[17].real 	1.8509354388811
scalar barabasi_100nodes_network.client[17] 	downloads[17].real 	179969
scalar barabasi_100nodes_network.client[17] 	avg_time[17].real 	0
scalar barabasi_100nodes_network.client[18] 	hdistance[18].real 	1.6791284365384
scalar barabasi_100nodes_network.client[18] 	downloads[18].real 	179723
scalar barabasi_100nodes_network.client[18] 	avg_time[18].real 	0
scalar barabasi_100nodes_network.client[19] 	hdistance[19].real 	2.0226644647216
scalar barabasi_100nodes_network.client[19] 	downloads[19].real 	179841
scalar barabasi_100nodes_network.client[19] 	avg_time[19].real 	0
scalar barabasi_100nodes_network.client[20] 	hdistance[20].real 	1.8578062102257
scalar barabasi_100nodes_network.client[20] 	downloads[20].real 	179607
scalar barabasi_100nodes_network.client[20] 	avg_time[20].real 	0
scalar barabasi_100nodes_network.client[21] 	hdistance[21].real 	1.9647055554012
scalar barabasi_100nodes_network.client[21] 	downloads[21].real 	179915
scalar barabasi_100nodes_network.client[21] 	avg_time[21].real 	0
scalar barabasi_100nodes_network.client[22] 	hdistance[22].real 	1.8885207311835
scalar barabasi_100nodes_network.client[22] 	downloads[22].real 	179271
scalar barabasi_100nodes_network.client[22] 	avg_time[22].real 	0
scalar barabasi_100nodes_network.client[23] 	hdistance[23].real 	1.9656506988134
scalar barabasi_100nodes_network.client[23] 	downloads[23].real 	180091
scalar barabasi_100nodes_network.client[23] 	avg_time[23].real 	0
scalar barabasi_100nodes_network.client[24] 	hdistance[24].real 	2.187510064021
scalar barabasi_100nodes_network.client[24] 	downloads[24].real 	180097
scalar barabasi_100nodes_network.client[24] 	avg_time[24].real 	0
scalar barabasi_100nodes_network.client[25] 	hdistance[25].real 	1.4349464939924
scalar barabasi_100nodes_network.client[25] 	downloads[25].real 	179606
scalar barabasi_100nodes_network.client[25] 	avg_time[25].real 	0
scalar barabasi_100nodes_network.client[26] 	hdistance[26].real 	1.6131295553987
scalar barabasi_100nodes_network.client[26] 	downloads[26].real 	179869
scalar barabasi_100nodes_network.client[26] 	avg_time[26].real 	0
scalar barabasi_100nodes_network.client[27] 	hdistance[27].real 	1.6476771167339
scalar barabasi_100nodes_network.client[27] 	downloads[27].real 	180573
scalar barabasi_100nodes_network.client[27] 	avg_time[27].real 	0
scalar barabasi_100nodes_network.client[28] 	hdistance[28].real 	1.8784440482736
scalar barabasi_100nodes_network.client[28] 	downloads[28].real 	180057
scalar barabasi_100nodes_network.client[28] 	avg_time[28].real 	0
scalar barabasi_100nodes_network.client[29] 	hdistance[29].real 	1.3176052849804
scalar barabasi_100nodes_network.client[29] 	downloads[29].real 	179679
scalar barabasi_100nodes_network.client[29] 	avg_time[29].real 	0
scalar barabasi_100nodes_network.client[30] 	hdistance[30].real 	1.6413588361109
scalar barabasi_100nodes_network.client[30] 	downloads[30].real 	179536
scalar barabasi_100nodes_network.client[30] 	avg_time[30].real 	0
scalar barabasi_100nodes_network.client[31] 	hdistance[31].real 	1.8343304033956
scalar barabasi_100nodes_network.client[31] 	downloads[31].real 	179526
scalar barabasi_100nodes_network.client[31] 	avg_time[31].real 	0
scalar barabasi_100nodes_network.client[32] 	hdistance[32].real 	1.5980447514974
scalar barabasi_100nodes_network.client[32] 	downloads[32].real 	180642
scalar barabasi_100nodes_network.client[32] 	avg_time[32].real 	0
scalar barabasi_100nodes_network.client[33] 	hdistance[33].real 	1.5320415879017
scalar barabasi_100nodes_network.client[33] 	downloads[33].real 	179860
scalar barabasi_100nodes_network.client[33] 	avg_time[33].real 	0
scalar barabasi_100nodes_network.client[34] 	hdistance[34].real 	1.5411620598489
scalar barabasi_100nodes_network.client[34] 	downloads[34].real 	180421
scalar barabasi_100nodes_network.client[34] 	avg_time[34].real 	0
scalar barabasi_100nodes_network.client[35] 	hdistance[35].real 	2.2645475093069
scalar barabasi_100nodes_network.client[35] 	downloads[35].real 	180512
scalar barabasi_100nodes_network.client[35] 	avg_time[35].real 	0
scalar barabasi_100nodes_network.client[36] 	hdistance[36].real 	1.5764248992945
scalar barabasi_100nodes_network.client[36] 	downloads[36].real 	179732
scalar barabasi_100nodes_network.client[36] 	avg_time[36].real 	0
scalar barabasi_100nodes_network.client[37] 	hdistance[37].real 	1.8920329364638
scalar barabasi_100nodes_network.client[37] 	downloads[37].real 	179740
scalar barabasi_100nodes_network.client[37] 	avg_time[37].real 	0
scalar barabasi_100nodes_network.client[38] 	hdistance[38].real 	1.627718569063
scalar barabasi_100nodes_network.client[38] 	downloads[38].real 	179966
scalar barabasi_100nodes_network.client[38] 	avg_time[38].real 	0
scalar barabasi_100nodes_network.client[39] 	hdistance[39].real 	1.9120241450034
scalar barabasi_100nodes_network.client[39] 	downloads[39].real 	179913
scalar barabasi_100nodes_network.client[39] 	avg_time[39].real 	0
scalar barabasi_100nodes_network.client[40] 	hdistance[40].real 	2.1979374103041
scalar barabasi_100nodes_network.client[40] 	downloads[40].real 	179774
scalar barabasi_100nodes_network.client[40] 	avg_time[40].real 	0
scalar barabasi_100nodes_network.client[41] 	hdistance[41].real 	1.6709832613901
scalar barabasi_100nodes_network.client[41] 	downloads[41].real 	180003
scalar barabasi_100nodes_network.client[41] 	avg_time[41].real 	0
scalar barabasi_100nodes_network.client[42] 	hdistance[42].real 	1.8563017010046
scalar barabasi_100nodes_network.client[42] 	downloads[42].real 	180364
scalar barabasi_100nodes_network.client[42] 	avg_time[42].real 	0
scalar barabasi_100nodes_network.client[43] 	hdistance[43].real 	1.8626647015149
scalar barabasi_100nodes_network.client[43] 	downloads[43].real 	180478
scalar barabasi_100nodes_network.client[43] 	avg_time[43].real 	0
scalar barabasi_100nodes_network.client[44] 	hdistance[44].real 	1.8756329766196
scalar barabasi_100nodes_network.client[44] 	downloads[44].real 	179509
scalar barabasi_100nodes_network.client[44] 	avg_time[44].real 	0
scalar barabasi_100nodes_network.client[45] 	hdistance[45].real 	1.5308807643908
scalar barabasi_100nodes_network.client[45] 	downloads[45].real 	179594
scalar barabasi_100nodes_network.client[45] 	avg_time[45].real 	0
scalar barabasi_100nodes_network.client[46] 	hdistance[46].real 	2.0206546677655
scalar barabasi_100nodes_network.client[46] 	downloads[46].real 	179572
scalar barabasi_100nodes_network.client[46] 	avg_time[46].real 	0
scalar barabasi_100nodes_network.client[47] 	hdistance[47].real 	1.8961749849803
scalar barabasi_100nodes_network.client[47] 	downloads[47].real 	179764
scalar barabasi_100nodes_network.client[47] 	avg_time[47].real 	0
scalar barabasi_100nodes_network.client[48] 	hdistance[48].real 	1.8582476224218
scalar barabasi_100nodes_network.client[48] 	downloads[48].real 	180646
scalar barabasi_100nodes_network.client[48] 	avg_time[48].real 	0
scalar barabasi_100nodes_network.client[49] 	hdistance[49].real 	1.7353024299687
scalar barabasi_100nodes_network.client[49] 	downloads[49].real 	180455
scalar barabasi_100nodes_network.client[49] 	avg_time[49].real 	0
scalar barabasi_100nodes_network.client[50] 	hdistance[50].real 	2.5232419745945
scalar barabasi_100nodes_network.client[50] 	downloads[50].real 	179804
scalar barabasi_100nodes_network.client[50] 	avg_time[50].real 	0
scalar barabasi_100nodes_network.client[51] 	hdistance[51].real 	1.961856735052
scalar barabasi_100nodes_network.client[51] 	downloads[51].real 	180058
scalar barabasi_100nodes_network.client[51] 	avg_time[51].real 	0
scalar barabasi_100nodes_network.client[52] 	hdistance[52].real 	1.6839134629246
scalar barabasi_100nodes_network.client[52] 	downloads[52].real 	180362
scalar barabasi_100nodes_network.client[52] 	avg_time[52].real 	0
scalar barabasi_100nodes_network.client[53] 	hdistance[53].real 	1.7591425387903
scalar barabasi_100nodes_network.client[53] 	downloads[53].real 	180393
scalar barabasi_100nodes_network.client[53] 	avg_time[53].real 	0
scalar barabasi_100nodes_network.client[54] 	hdistance[54].real 	1.5797518940971
scalar barabasi_100nodes_network.client[54] 	downloads[54].real 	180165
scalar barabasi_100nodes_network.client[54] 	avg_time[54].real 	0
scalar barabasi_100nodes_network.client[55] 	hdistance[55].real 	1.8513506749203
scalar barabasi_100nodes_network.client[55] 	downloads[55].real 	179799
scalar barabasi_100nodes_network.client[55] 	avg_time[55].real 	0
scalar barabasi_100nodes_network.client[56] 	hdistance[56].real 	2.1934959621089
scalar barabasi_100nodes_network.client[56] 	downloads[56].real 	179673
scalar barabasi_100nodes_network.client[56] 	avg_time[56].real 	0
scalar barabasi_100nodes_network.client[57] 	hdistance[57].real 	2.203334315759
scalar barabasi_100nodes_network.client[57] 	downloads[57].real 	179827
scalar barabasi_100nodes_network.client[57] 	avg_time[57].real 	0
scalar barabasi_100nodes_network.client[58] 	hdistance[58].real 	1.9224330201954
scalar barabasi_100nodes_network.client[58] 	downloads[58].real 	179793
scalar barabasi_100nodes_network.client[58] 	avg_time[58].real 	0
scalar barabasi_100nodes_network.client[59] 	hdistance[59].real 	1.5370613133658
scalar barabasi_100nodes_network.client[59] 	downloads[59].real 	180026
scalar barabasi_100nodes_network.client[59] 	avg_time[59].real 	0
scalar barabasi_100nodes_network.client[60] 	hdistance[60].real 	2.1830963262046
scalar barabasi_100nodes_network.client[60] 	downloads[60].real 	180304
scalar barabasi_100nodes_network.client[60] 	avg_time[60].real 	0
scalar barabasi_100nodes_network.client[61] 	hdistance[61].real 	1.8559394829449
scalar barabasi_100nodes_network.client[61] 	downloads[61].real 	180445
scalar barabasi_100nodes_network.client[61] 	avg_time[61].real 	0
scalar barabasi_100nodes_network.client[62] 	hdistance[62].real 	1.5901862059023
scalar barabasi_100nodes_network.client[62] 	downloads[62].real 	180338
scalar barabasi_100nodes_network.client[62] 	avg_time[62].real 	0
scalar barabasi_100nodes_network.client[63] 	hdistance[63].real 	2.2154363123194
scalar barabasi_100nodes_network.client[63] 	downloads[63].real 	180341
scalar barabasi_100nodes_network.client[63] 	avg_time[63].real 	0
scalar barabasi_100nodes_network.client[64] 	hdistance[64].real 	1.8500288523426
scalar barabasi_100nodes_network.client[64] 	downloads[64].real 	180228
scalar barabasi_100nodes_network.client[64] 	avg_time[64].real 	0
scalar barabasi_100nodes_network.client[65] 	hdistance[65].real 	1.7118042221146
scalar barabasi_100nodes_network.client[65] 	downloads[65].real 	179673
scalar barabasi_100nodes_network.client[65] 	avg_time[65].real 	0
scalar barabasi_100nodes_network.client[66] 	hdistance[66].real 	1.8610358910616
scalar barabasi_100nodes_network.client[66] 	downloads[66].real 	180212
scalar barabasi_100nodes_network.client[66] 	avg_time[66].real 	0
scalar barabasi_100nodes_network.client[67] 	hdistance[67].real 	1.621063436895
scalar barabasi_100nodes_network.client[67] 	downloads[67].real 	179249
scalar barabasi_100nodes_network.client[67] 	avg_time[67].real 	0
scalar barabasi_100nodes_network.client[68] 	hdistance[68].real 	1.7022594813046
scalar barabasi_100nodes_network.client[68] 	downloads[68].real 	179643
scalar barabasi_100nodes_network.client[68] 	avg_time[68].real 	0
scalar barabasi_100nodes_network.client[69] 	hdistance[69].real 	1.8530998053934
scalar barabasi_100nodes_network.client[69] 	downloads[69].real 	179850
scalar barabasi_100nodes_network.client[69] 	avg_time[69].real 	0
scalar barabasi_100nodes_network.client[70] 	hdistance[70].real 	2.2148338161474
scalar barabasi_100nodes_network.client[70] 	downloads[70].real 	180884
scalar barabasi_100nodes_network.client[70] 	avg_time[70].real 	0
scalar barabasi_100nodes_network.client[71] 	hdistance[71].real 	2.2006578580587
scalar barabasi_100nodes_network.client[71] 	downloads[71].real 	179370
scalar barabasi_100nodes_network.client[71] 	avg_time[71].real 	0
scalar barabasi_100nodes_network.client[72] 	hdistance[72].real 	1.7510659853267
scalar barabasi_100nodes_network.client[72] 	downloads[72].real 	179646
scalar barabasi_100nodes_network.client[72] 	avg_time[72].real 	0
scalar barabasi_100nodes_network.client[73] 	hdistance[73].real 	1.596358507501
scalar barabasi_100nodes_network.client[73] 	downloads[73].real 	179377
scalar barabasi_100nodes_network.client[73] 	avg_time[73].real 	0
scalar barabasi_100nodes_network.client[74] 	hdistance[74].real 	1.6521172023734
scalar barabasi_100nodes_network.client[74] 	downloads[74].real 	180167
scalar barabasi_100nodes_network.client[74] 	avg_time[74].real 	0
scalar barabasi_100nodes_network.client[75] 	hdistance[75].real 	1.8723694314299
scalar barabasi_100nodes_network.client[75] 	downloads[75].real 	179714
scalar barabasi_100nodes_network.client[75] 	avg_time[75].real 	0
scalar barabasi_100nodes_network.client[76] 	hdistance[76].real 	1.768591280412
scalar barabasi_100nodes_network.client[76] 	downloads[76].real 	180192
scalar barabasi_100nodes_network.client[76] 	avg_time[76].real 	0
scalar barabasi_100nodes_network.client[77] 	hdistance[77].real 	1.6579337590049
scalar barabasi_100nodes_network.client[77] 	downloads[77].real 	180734
scalar barabasi_100nodes_network.client[77] 	avg_time[77].real 	0
scalar barabasi_100nodes_network.client[78] 	hdistance[78].real 	1.5553405077723
scalar barabasi_100nodes_network.client[78] 	downloads[78].real 	179805
scalar barabasi_100nodes_network.client[78] 	avg_time[78].real 	0
scalar barabasi_100nodes_network.client[79] 	hdistance[79].real 	1.5373935363435
scalar barabasi_100nodes_network.client[79] 	downloads[79].real 	179991
scalar barabasi_100nodes_network.client[79] 	avg_time[79].real 	0
scalar barabasi_100nodes_network.client[80] 	hdistance[80].real 	2.2094512770945
scalar barabasi_100nodes_network.client[80] 	downloads[80].real 	180018
scalar barabasi_100nodes_network.client[80] 	avg_time[80].real 	0
scalar barabasi_100nodes_network.client[81] 	hdistance[81].real 	1.7108500529447
scalar barabasi_100nodes_network.client[81] 	downloads[81].real 	180377
scalar barabasi_100nodes_network.client[81] 	avg_time[81].real 	0
scalar barabasi_100nodes_network.client[82] 	hdistance[82].real 	2.2631631648337
scalar barabasi_100nodes_network.client[82] 	downloads[82].real 	179763
scalar barabasi_100nodes_network.client[82] 	avg_time[82].real 	0
scalar barabasi_100nodes_network.client[83] 	hdistance[83].real 	1.9659172791469
scalar barabasi_100nodes_network.client[83] 	downloads[83].real 	180414
scalar barabasi_100nodes_network.client[83] 	avg_time[83].real 	0
scalar barabasi_100nodes_network.client[84] 	hdistance[84].real 	1.6696413210573
scalar barabasi_100nodes_network.client[84] 	downloads[84].real 	180189
scalar barabasi_100nodes_network.client[84] 	avg_time[84].real 	0
scalar barabasi_100nodes_network.client[85] 	hdistance[85].real 	1.6005671539085
scalar barabasi_100nodes_network.client[85] 	downloads[85].real 	180198
scalar barabasi_100nodes_network.client[85] 	avg_time[85].real 	0
scalar barabasi_100nodes_network.client[86] 	hdistance[86].real 	1.9580532146577
scalar barabasi_100nodes_network.client[86] 	downloads[86].real 	179537
scalar barabasi_100nodes_network.client[86] 	avg_time[86].real 	0
scalar barabasi_100nodes_network.client[87] 	hdistance[87].real 	1.694247763019
scalar barabasi_100nodes_network.client[87] 	downloads[87].real 	179930
scalar barabasi_100nodes_network.client[87] 	avg_time[87].real 	0
scalar barabasi_100nodes_network.client[88] 	hdistance[88].real 	1.5565328588903
scalar barabasi_100nodes_network.client[88] 	downloads[88].real 	179860
scalar barabasi_100nodes_network.client[88] 	avg_time[88].real 	0
scalar barabasi_100nodes_network.client[89] 	hdistance[89].real 	2.2196758525145
scalar barabasi_100nodes_network.client[89] 	downloads[89].real 	179733
scalar barabasi_100nodes_network.client[89] 	avg_time[89].real 	0
scalar barabasi_100nodes_network.client[90] 	hdistance[90].real 	1.7348979693769
scalar barabasi_100nodes_network.client[90] 	downloads[90].real 	180191
scalar barabasi_100nodes_network.client[90] 	avg_time[90].real 	0
scalar barabasi_100nodes_network.client[91] 	hdistance[91].real 	1.8557041393852
scalar barabasi_100nodes_network.client[91] 	downloads[91].real 	180220
scalar barabasi_100nodes_network.client[91] 	avg_time[91].real 	0
scalar barabasi_100nodes_network.client[92] 	hdistance[92].real 	1.858098630747
scalar barabasi_100nodes_network.client[92] 	downloads[92].real 	179660
scalar barabasi_100nodes_network.client[92] 	avg_time[92].real 	0
scalar barabasi_100nodes_network.client[93] 	hdistance[93].real 	1.8785805326357
scalar barabasi_100nodes_network.client[93] 	downloads[93].real 	178884
scalar barabasi_100nodes_network.client[93] 	avg_time[93].real 	0
scalar barabasi_100nodes_network.client[94] 	hdistance[94].real 	2.204441755387
scalar barabasi_100nodes_network.client[94] 	downloads[94].real 	180154
scalar barabasi_100nodes_network.client[94] 	avg_time[94].real 	0
scalar barabasi_100nodes_network.client[95] 	hdistance[95].real 	1.9506060284025
scalar barabasi_100nodes_network.client[95] 	downloads[95].real 	178787
scalar barabasi_100nodes_network.client[95] 	avg_time[95].real 	0
scalar barabasi_100nodes_network.client[96] 	hdistance[96].real 	1.8517614889987
scalar barabasi_100nodes_network.client[96] 	downloads[96].real 	179933
scalar barabasi_100nodes_network.client[96] 	avg_time[96].real 	0
scalar barabasi_100nodes_network.client[97] 	hdistance[97].real 	1.7657219988064
scalar barabasi_100nodes_network.client[97] 	downloads[97].real 	179287
scalar barabasi_100nodes_network.client[97] 	avg_time[97].real 	0
scalar barabasi_100nodes_network.client[98] 	hdistance[98].real 	1.941790371867
scalar barabasi_100nodes_network.client[98] 	downloads[98].real 	179661
scalar barabasi_100nodes_network.client[98] 	avg_time[98].real 	0
scalar barabasi_100nodes_network.client[99] 	hdistance[99].real 	1.9534346342088
scalar barabasi_100nodes_network.client[99] 	downloads[99].real 	179597
scalar barabasi_100nodes_network.client[99] 	avg_time[99].real 	0
