version 2
run General-7-20150722-13:23:51-32211
attr C 1e4
attr D lce
attr F spr
attr R always_highq
attr a 1
attr brates 0.3_0.7_1.5_2.5_3.5
attr configname General
attr ctlg 1e6
attr datetime 20150722-13:23:51
attr experiment General
attr inifile omnetpp.ini
attr iterationvars "$net=barabasi_100nodes, $rep=4, $lambda=100, $a=1, $ctlg=1e6, $brates=0.3_0.7_1.5_2.5_3.5, $F=spr, $ttl=1000, $D=lce, $R=always_highq, $C=1e4, $window=60, $variance=0.05, $mytime=1800"
attr iterationvars2 "$net=barabasi_100nodes, $rep=4, $lambda=100, $a=1, $ctlg=1e6, $brates=0.3_0.7_1.5_2.5_3.5, $F=spr, $ttl=1000, $D=lce, $R=always_highq, $C=1e4, $window=60, $variance=0.05, $mytime=1800, $repetition=0"
attr lambda 100
attr measurement "$net=barabasi_100nodes, $rep=4, $lambda=100, $a=1, $ctlg=1e6, $brates=0.3_0.7_1.5_2.5_3.5, $F=spr, $ttl=1000, $D=lce, $R=always_highq, $C=1e4, $window=60, $variance=0.05, $mytime=1800"
attr mytime 1800
attr net barabasi_100nodes
attr network networks.${net=barabasi_100nodes}_network
attr processid 32211
attr rep 4
attr repetition 0
attr replication #0
attr resultdir results
attr runnumber 7
attr seedset 4
attr ttl 1000
attr variance 0.05
attr window 60

scalar . 	C 	1e4
scalar . 	a 	1
scalar . 	ctlg 	1e6
scalar . 	lambda 	100
scalar . 	mytime 	1800
scalar . 	rep 	4
scalar . 	ttl 	1000
scalar . 	variance 	0.05
scalar . 	window 	60
scalar barabasi_100nodes_network.content_distribution 	repo-0 	82
scalar barabasi_100nodes_network.content_distribution 	repo-1 	48
scalar barabasi_100nodes_network.content_distribution 	repo-2 	74
scalar barabasi_100nodes_network.content_distribution 	repo-3 	16
scalar barabasi_100nodes_network.content_distribution 	repo-4 	98
scalar barabasi_100nodes_network.content_distribution 	repo-5 	25
scalar barabasi_100nodes_network.content_distribution 	repo-6 	58
scalar barabasi_100nodes_network.content_distribution 	repo-7 	99
scalar barabasi_100nodes_network.content_distribution 	repo-8 	26
scalar barabasi_100nodes_network.content_distribution 	repo-9 	66
scalar barabasi_100nodes_network.content_distribution 	repo-10 	46
scalar barabasi_100nodes_network.content_distribution 	repo-11 	54
scalar barabasi_100nodes_network.content_distribution 	repo-12 	77
scalar barabasi_100nodes_network.content_distribution 	repo-13 	73
scalar barabasi_100nodes_network.content_distribution 	repo-14 	75
scalar barabasi_100nodes_network.content_distribution 	repo-15 	52
scalar barabasi_100nodes_network.content_distribution 	repo-16 	2
scalar barabasi_100nodes_network.content_distribution 	repo-17 	32
scalar barabasi_100nodes_network.content_distribution 	repo-18 	19
scalar barabasi_100nodes_network.content_distribution 	repo-19 	21
scalar barabasi_100nodes_network.content_distribution 	repo-20 	11
scalar barabasi_100nodes_network.content_distribution 	repo-21 	86
scalar barabasi_100nodes_network.content_distribution 	repo-22 	1
scalar barabasi_100nodes_network.content_distribution 	repo-23 	18
scalar barabasi_100nodes_network.content_distribution 	repo-24 	24
scalar barabasi_100nodes_network.content_distribution 	repo-25 	28
scalar barabasi_100nodes_network.content_distribution 	repo-26 	40
scalar barabasi_100nodes_network.content_distribution 	repo-27 	76
scalar barabasi_100nodes_network.content_distribution 	repo-28 	22
scalar barabasi_100nodes_network.content_distribution 	repo-29 	34
scalar barabasi_100nodes_network.content_distribution 	repo-30 	5
scalar barabasi_100nodes_network.content_distribution 	repo-31 	51
scalar barabasi_100nodes_network.content_distribution 	repo-32 	88
scalar barabasi_100nodes_network.content_distribution 	repo-33 	85
scalar barabasi_100nodes_network.content_distribution 	repo-34 	49
scalar barabasi_100nodes_network.content_distribution 	repo-35 	45
scalar barabasi_100nodes_network.content_distribution 	repo-36 	71
scalar barabasi_100nodes_network.content_distribution 	repo-37 	7
scalar barabasi_100nodes_network.content_distribution 	repo-38 	6
scalar barabasi_100nodes_network.content_distribution 	repo-39 	79
scalar barabasi_100nodes_network.content_distribution 	repo-40 	38
scalar barabasi_100nodes_network.content_distribution 	repo-41 	83
scalar barabasi_100nodes_network.content_distribution 	repo-42 	10
scalar barabasi_100nodes_network.content_distribution 	repo-43 	61
scalar barabasi_100nodes_network.content_distribution 	repo-44 	62
scalar barabasi_100nodes_network.content_distribution 	repo-45 	36
scalar barabasi_100nodes_network.content_distribution 	repo-46 	94
scalar barabasi_100nodes_network.content_distribution 	repo-47 	0
scalar barabasi_100nodes_network.content_distribution 	repo-48 	47
scalar barabasi_100nodes_network.content_distribution 	repo-49 	89
scalar barabasi_100nodes_network.content_distribution 	repo-50 	41
scalar barabasi_100nodes_network.content_distribution 	repo-51 	81
scalar barabasi_100nodes_network.content_distribution 	repo-52 	59
scalar barabasi_100nodes_network.content_distribution 	repo-53 	72
scalar barabasi_100nodes_network.content_distribution 	repo-54 	37
scalar barabasi_100nodes_network.content_distribution 	repo-55 	13
scalar barabasi_100nodes_network.content_distribution 	repo-56 	65
scalar barabasi_100nodes_network.content_distribution 	repo-57 	53
scalar barabasi_100nodes_network.content_distribution 	repo-58 	97
scalar barabasi_100nodes_network.content_distribution 	repo-59 	67
scalar barabasi_100nodes_network.content_distribution 	repo-60 	57
scalar barabasi_100nodes_network.content_distribution 	repo-61 	50
scalar barabasi_100nodes_network.content_distribution 	repo-62 	35
scalar barabasi_100nodes_network.content_distribution 	repo-63 	20
scalar barabasi_100nodes_network.content_distribution 	repo-64 	60
scalar barabasi_100nodes_network.content_distribution 	repo-65 	4
scalar barabasi_100nodes_network.content_distribution 	repo-66 	91
scalar barabasi_100nodes_network.content_distribution 	repo-67 	43
scalar barabasi_100nodes_network.content_distribution 	repo-68 	3
scalar barabasi_100nodes_network.content_distribution 	repo-69 	29
scalar barabasi_100nodes_network.content_distribution 	repo-70 	9
scalar barabasi_100nodes_network.content_distribution 	repo-71 	39
scalar barabasi_100nodes_network.content_distribution 	repo-72 	63
scalar barabasi_100nodes_network.content_distribution 	repo-73 	55
scalar barabasi_100nodes_network.content_distribution 	repo-74 	56
scalar barabasi_100nodes_network.content_distribution 	repo-75 	87
scalar barabasi_100nodes_network.content_distribution 	repo-76 	27
scalar barabasi_100nodes_network.content_distribution 	repo-77 	95
scalar barabasi_100nodes_network.content_distribution 	repo-78 	31
scalar barabasi_100nodes_network.content_distribution 	repo-79 	80
scalar barabasi_100nodes_network.content_distribution 	repo-80 	14
scalar barabasi_100nodes_network.content_distribution 	repo-81 	8
scalar barabasi_100nodes_network.content_distribution 	repo-82 	69
scalar barabasi_100nodes_network.content_distribution 	repo-83 	44
scalar barabasi_100nodes_network.content_distribution 	repo-84 	96
scalar barabasi_100nodes_network.content_distribution 	repo-85 	17
scalar barabasi_100nodes_network.content_distribution 	repo-86 	15
scalar barabasi_100nodes_network.content_distribution 	repo-87 	78
scalar barabasi_100nodes_network.content_distribution 	repo-88 	93
scalar barabasi_100nodes_network.content_distribution 	repo-89 	42
scalar barabasi_100nodes_network.content_distribution 	repo-90 	64
scalar barabasi_100nodes_network.content_distribution 	repo-91 	84
scalar barabasi_100nodes_network.content_distribution 	repo-92 	33
scalar barabasi_100nodes_network.content_distribution 	repo-93 	70
scalar barabasi_100nodes_network.content_distribution 	repo-94 	92
scalar barabasi_100nodes_network.content_distribution 	repo-95 	23
scalar barabasi_100nodes_network.content_distribution 	repo-96 	68
scalar barabasi_100nodes_network.content_distribution 	repo-97 	90
scalar barabasi_100nodes_network.content_distribution 	repo-98 	30
scalar barabasi_100nodes_network.content_distribution 	repo-99 	12
scalar barabasi_100nodes_network.content_distribution 	client-0 	66
scalar barabasi_100nodes_network.content_distribution 	client-1 	63
scalar barabasi_100nodes_network.content_distribution 	client-2 	51
scalar barabasi_100nodes_network.content_distribution 	client-3 	44
scalar barabasi_100nodes_network.content_distribution 	client-4 	78
scalar barabasi_100nodes_network.content_distribution 	client-5 	90
scalar barabasi_100nodes_network.content_distribution 	client-6 	52
scalar barabasi_100nodes_network.content_distribution 	client-7 	18
scalar barabasi_100nodes_network.content_distribution 	client-8 	69
scalar barabasi_100nodes_network.content_distribution 	client-9 	88
scalar barabasi_100nodes_network.content_distribution 	client-10 	30
scalar barabasi_100nodes_network.content_distribution 	client-11 	53
scalar barabasi_100nodes_network.content_distribution 	client-12 	73
scalar barabasi_100nodes_network.content_distribution 	client-13 	28
scalar barabasi_100nodes_network.content_distribution 	client-14 	89
scalar barabasi_100nodes_network.content_distribution 	client-15 	46
scalar barabasi_100nodes_network.content_distribution 	client-16 	40
scalar barabasi_100nodes_network.content_distribution 	client-17 	94
scalar barabasi_100nodes_network.content_distribution 	client-18 	87
scalar barabasi_100nodes_network.content_distribution 	client-19 	39
scalar barabasi_100nodes_network.content_distribution 	client-20 	82
scalar barabasi_100nodes_network.content_distribution 	client-21 	35
scalar barabasi_100nodes_network.content_distribution 	client-22 	84
scalar barabasi_100nodes_network.content_distribution 	client-23 	54
scalar barabasi_100nodes_network.content_distribution 	client-24 	20
scalar barabasi_100nodes_network.content_distribution 	client-25 	5
scalar barabasi_100nodes_network.content_distribution 	client-26 	4
scalar barabasi_100nodes_network.content_distribution 	client-27 	43
scalar barabasi_100nodes_network.content_distribution 	client-28 	1
scalar barabasi_100nodes_network.content_distribution 	client-29 	49
scalar barabasi_100nodes_network.content_distribution 	client-30 	15
scalar barabasi_100nodes_network.content_distribution 	client-31 	12
scalar barabasi_100nodes_network.content_distribution 	client-32 	86
scalar barabasi_100nodes_network.content_distribution 	client-33 	24
scalar barabasi_100nodes_network.content_distribution 	client-34 	19
scalar barabasi_100nodes_network.content_distribution 	client-35 	16
scalar barabasi_100nodes_network.content_distribution 	client-36 	38
scalar barabasi_100nodes_network.content_distribution 	client-37 	62
scalar barabasi_100nodes_network.content_distribution 	client-38 	57
scalar barabasi_100nodes_network.content_distribution 	client-39 	95
scalar barabasi_100nodes_network.content_distribution 	client-40 	2
scalar barabasi_100nodes_network.content_distribution 	client-41 	68
scalar barabasi_100nodes_network.content_distribution 	client-42 	6
scalar barabasi_100nodes_network.content_distribution 	client-43 	55
scalar barabasi_100nodes_network.content_distribution 	client-44 	80
scalar barabasi_100nodes_network.content_distribution 	client-45 	72
scalar barabasi_100nodes_network.content_distribution 	client-46 	41
scalar barabasi_100nodes_network.content_distribution 	client-47 	14
scalar barabasi_100nodes_network.content_distribution 	client-48 	96
scalar barabasi_100nodes_network.content_distribution 	client-49 	59
scalar barabasi_100nodes_network.content_distribution 	client-50 	21
scalar barabasi_100nodes_network.content_distribution 	client-51 	67
scalar barabasi_100nodes_network.content_distribution 	client-52 	27
scalar barabasi_100nodes_network.content_distribution 	client-53 	32
scalar barabasi_100nodes_network.content_distribution 	client-54 	37
scalar barabasi_100nodes_network.content_distribution 	client-55 	23
scalar barabasi_100nodes_network.content_distribution 	client-56 	79
scalar barabasi_100nodes_network.content_distribution 	client-57 	34
scalar barabasi_100nodes_network.content_distribution 	client-58 	92
scalar barabasi_100nodes_network.content_distribution 	client-59 	42
scalar barabasi_100nodes_network.content_distribution 	client-60 	11
scalar barabasi_100nodes_network.content_distribution 	client-61 	65
scalar barabasi_100nodes_network.content_distribution 	client-62 	97
scalar barabasi_100nodes_network.content_distribution 	client-63 	50
scalar barabasi_100nodes_network.content_distribution 	client-64 	83
scalar barabasi_100nodes_network.content_distribution 	client-65 	60
scalar barabasi_100nodes_network.content_distribution 	client-66 	36
scalar barabasi_100nodes_network.content_distribution 	client-67 	71
scalar barabasi_100nodes_network.content_distribution 	client-68 	74
scalar barabasi_100nodes_network.content_distribution 	client-69 	45
scalar barabasi_100nodes_network.content_distribution 	client-70 	99
scalar barabasi_100nodes_network.content_distribution 	client-71 	76
scalar barabasi_100nodes_network.content_distribution 	client-72 	22
scalar barabasi_100nodes_network.content_distribution 	client-73 	7
scalar barabasi_100nodes_network.content_distribution 	client-74 	58
scalar barabasi_100nodes_network.content_distribution 	client-75 	93
scalar barabasi_100nodes_network.content_distribution 	client-76 	75
scalar barabasi_100nodes_network.content_distribution 	client-77 	8
scalar barabasi_100nodes_network.content_distribution 	client-78 	47
scalar barabasi_100nodes_network.content_distribution 	client-79 	98
scalar barabasi_100nodes_network.content_distribution 	client-80 	91
scalar barabasi_100nodes_network.content_distribution 	client-81 	33
scalar barabasi_100nodes_network.content_distribution 	client-82 	81
scalar barabasi_100nodes_network.content_distribution 	client-83 	25
scalar barabasi_100nodes_network.content_distribution 	client-84 	70
scalar barabasi_100nodes_network.content_distribution 	client-85 	9
scalar barabasi_100nodes_network.content_distribution 	client-86 	64
scalar barabasi_100nodes_network.content_distribution 	client-87 	26
scalar barabasi_100nodes_network.content_distribution 	client-88 	13
scalar barabasi_100nodes_network.content_distribution 	client-89 	3
scalar barabasi_100nodes_network.content_distribution 	client-90 	48
scalar barabasi_100nodes_network.content_distribution 	client-91 	61
scalar barabasi_100nodes_network.content_distribution 	client-92 	77
scalar barabasi_100nodes_network.content_distribution 	client-93 	29
scalar barabasi_100nodes_network.content_distribution 	client-94 	17
scalar barabasi_100nodes_network.content_distribution 	client-95 	56
scalar barabasi_100nodes_network.content_distribution 	client-96 	31
scalar barabasi_100nodes_network.content_distribution 	client-97 	10
scalar barabasi_100nodes_network.content_distribution 	client-98 	0
scalar barabasi_100nodes_network.content_distribution 	client-99 	85
scalar barabasi_100nodes_network.content_distribution 	repo-0_card 	249422
scalar barabasi_100nodes_network.content_distribution 	repo-0_price 	0
scalar barabasi_100nodes_network.content_distribution 	repo-1_card 	250186
scalar barabasi_100nodes_network.content_distribution 	repo-1_price 	0
scalar barabasi_100nodes_network.content_distribution 	repo-2_card 	250640
scalar barabasi_100nodes_network.content_distribution 	repo-2_price 	0
scalar barabasi_100nodes_network.content_distribution 	repo-3_card 	249752
scalar barabasi_100nodes_network.content_distribution 	repo-3_price 	0
scalar barabasi_100nodes_network.content_distribution 	repo-4_card 	0
scalar barabasi_100nodes_network.content_distribution 	repo-4_price 	0
scalar barabasi_100nodes_network.content_distribution 	repo-5_card 	0
scalar barabasi_100nodes_network.content_distribution 	repo-5_price 	0
scalar barabasi_100nodes_network.content_distribution 	repo-6_card 	0
scalar barabasi_100nodes_network.content_distribution 	repo-6_price 	0
scalar barabasi_100nodes_network.content_distribution 	repo-7_card 	0
scalar barabasi_100nodes_network.content_distribution 	repo-7_price 	0
scalar barabasi_100nodes_network.content_distribution 	repo-8_card 	0
scalar barabasi_100nodes_network.content_distribution 	repo-8_price 	0
scalar barabasi_100nodes_network.content_distribution 	repo-9_card 	0
scalar barabasi_100nodes_network.content_distribution 	repo-9_price 	0
scalar barabasi_100nodes_network.content_distribution 	repo-10_card 	0
scalar barabasi_100nodes_network.content_distribution 	repo-10_price 	0
scalar barabasi_100nodes_network.content_distribution 	repo-11_card 	0
scalar barabasi_100nodes_network.content_distribution 	repo-11_price 	0
scalar barabasi_100nodes_network.content_distribution 	repo-12_card 	0
scalar barabasi_100nodes_network.content_distribution 	repo-12_price 	0
scalar barabasi_100nodes_network.content_distribution 	repo-13_card 	0
scalar barabasi_100nodes_network.content_distribution 	repo-13_price 	0
scalar barabasi_100nodes_network.content_distribution 	repo-14_card 	0
scalar barabasi_100nodes_network.content_distribution 	repo-14_price 	0
scalar barabasi_100nodes_network.content_distribution 	repo-15_card 	0
scalar barabasi_100nodes_network.content_distribution 	repo-15_price 	0
scalar barabasi_100nodes_network.content_distribution 	repo-16_card 	0
scalar barabasi_100nodes_network.content_distribution 	repo-16_price 	0
scalar barabasi_100nodes_network.content_distribution 	repo-17_card 	0
scalar barabasi_100nodes_network.content_distribution 	repo-17_price 	0
scalar barabasi_100nodes_network.content_distribution 	repo-18_card 	0
scalar barabasi_100nodes_network.content_distribution 	repo-18_price 	0
scalar barabasi_100nodes_network.content_distribution 	repo-19_card 	0
scalar barabasi_100nodes_network.content_distribution 	repo-19_price 	0
scalar barabasi_100nodes_network.content_distribution 	repo-20_card 	0
scalar barabasi_100nodes_network.content_distribution 	repo-20_price 	0
scalar barabasi_100nodes_network.content_distribution 	repo-21_card 	0
scalar barabasi_100nodes_network.content_distribution 	repo-21_price 	0
scalar barabasi_100nodes_network.content_distribution 	repo-22_card 	0
scalar barabasi_100nodes_network.content_distribution 	repo-22_price 	0
scalar barabasi_100nodes_network.content_distribution 	repo-23_card 	0
scalar barabasi_100nodes_network.content_distribution 	repo-23_price 	0
scalar barabasi_100nodes_network.content_distribution 	repo-24_card 	0
scalar barabasi_100nodes_network.content_distribution 	repo-24_price 	0
scalar barabasi_100nodes_network.content_distribution 	repo-25_card 	0
scalar barabasi_100nodes_network.content_distribution 	repo-25_price 	0
scalar barabasi_100nodes_network.content_distribution 	repo-26_card 	0
scalar barabasi_100nodes_network.content_distribution 	repo-26_price 	0
scalar barabasi_100nodes_network.content_distribution 	repo-27_card 	0
scalar barabasi_100nodes_network.content_distribution 	repo-27_price 	0
scalar barabasi_100nodes_network.content_distribution 	repo-28_card 	0
scalar barabasi_100nodes_network.content_distribution 	repo-28_price 	0
scalar barabasi_100nodes_network.content_distribution 	repo-29_card 	0
scalar barabasi_100nodes_network.content_distribution 	repo-29_price 	0
scalar barabasi_100nodes_network.content_distribution 	repo-30_card 	0
scalar barabasi_100nodes_network.content_distribution 	repo-30_price 	0
scalar barabasi_100nodes_network.content_distribution 	repo-31_card 	0
scalar barabasi_100nodes_network.content_distribution 	repo-31_price 	0
scalar barabasi_100nodes_network.content_distribution 	repo-32_card 	0
scalar barabasi_100nodes_network.content_distribution 	repo-32_price 	0
scalar barabasi_100nodes_network.content_distribution 	repo-33_card 	0
scalar barabasi_100nodes_network.content_distribution 	repo-33_price 	0
scalar barabasi_100nodes_network.content_distribution 	repo-34_card 	0
scalar barabasi_100nodes_network.content_distribution 	repo-34_price 	0
scalar barabasi_100nodes_network.content_distribution 	repo-35_card 	0
scalar barabasi_100nodes_network.content_distribution 	repo-35_price 	0
scalar barabasi_100nodes_network.content_distribution 	repo-36_card 	0
scalar barabasi_100nodes_network.content_distribution 	repo-36_price 	0
scalar barabasi_100nodes_network.content_distribution 	repo-37_card 	0
scalar barabasi_100nodes_network.content_distribution 	repo-37_price 	0
scalar barabasi_100nodes_network.content_distribution 	repo-38_card 	0
scalar barabasi_100nodes_network.content_distribution 	repo-38_price 	0
scalar barabasi_100nodes_network.content_distribution 	repo-39_card 	0
scalar barabasi_100nodes_network.content_distribution 	repo-39_price 	0
scalar barabasi_100nodes_network.content_distribution 	repo-40_card 	0
scalar barabasi_100nodes_network.content_distribution 	repo-40_price 	0
scalar barabasi_100nodes_network.content_distribution 	repo-41_card 	0
scalar barabasi_100nodes_network.content_distribution 	repo-41_price 	0
scalar barabasi_100nodes_network.content_distribution 	repo-42_card 	0
scalar barabasi_100nodes_network.content_distribution 	repo-42_price 	0
scalar barabasi_100nodes_network.content_distribution 	repo-43_card 	0
scalar barabasi_100nodes_network.content_distribution 	repo-43_price 	0
scalar barabasi_100nodes_network.content_distribution 	repo-44_card 	0
scalar barabasi_100nodes_network.content_distribution 	repo-44_price 	0
scalar barabasi_100nodes_network.content_distribution 	repo-45_card 	0
scalar barabasi_100nodes_network.content_distribution 	repo-45_price 	0
scalar barabasi_100nodes_network.content_distribution 	repo-46_card 	0
scalar barabasi_100nodes_network.content_distribution 	repo-46_price 	0
scalar barabasi_100nodes_network.content_distribution 	repo-47_card 	0
scalar barabasi_100nodes_network.content_distribution 	repo-47_price 	0
scalar barabasi_100nodes_network.content_distribution 	repo-48_card 	0
scalar barabasi_100nodes_network.content_distribution 	repo-48_price 	0
scalar barabasi_100nodes_network.content_distribution 	repo-49_card 	0
scalar barabasi_100nodes_network.content_distribution 	repo-49_price 	0
scalar barabasi_100nodes_network.content_distribution 	repo-50_card 	0
scalar barabasi_100nodes_network.content_distribution 	repo-50_price 	0
scalar barabasi_100nodes_network.content_distribution 	repo-51_card 	0
scalar barabasi_100nodes_network.content_distribution 	repo-51_price 	0
scalar barabasi_100nodes_network.content_distribution 	repo-52_card 	0
scalar barabasi_100nodes_network.content_distribution 	repo-52_price 	0
scalar barabasi_100nodes_network.content_distribution 	repo-53_card 	0
scalar barabasi_100nodes_network.content_distribution 	repo-53_price 	0
scalar barabasi_100nodes_network.content_distribution 	repo-54_card 	0
scalar barabasi_100nodes_network.content_distribution 	repo-54_price 	0
scalar barabasi_100nodes_network.content_distribution 	repo-55_card 	0
scalar barabasi_100nodes_network.content_distribution 	repo-55_price 	0
scalar barabasi_100nodes_network.content_distribution 	repo-56_card 	0
scalar barabasi_100nodes_network.content_distribution 	repo-56_price 	0
scalar barabasi_100nodes_network.content_distribution 	repo-57_card 	0
scalar barabasi_100nodes_network.content_distribution 	repo-57_price 	0
scalar barabasi_100nodes_network.content_distribution 	repo-58_card 	0
scalar barabasi_100nodes_network.content_distribution 	repo-58_price 	0
scalar barabasi_100nodes_network.content_distribution 	repo-59_card 	0
scalar barabasi_100nodes_network.content_distribution 	repo-59_price 	0
scalar barabasi_100nodes_network.content_distribution 	repo-60_card 	0
scalar barabasi_100nodes_network.content_distribution 	repo-60_price 	0
scalar barabasi_100nodes_network.content_distribution 	repo-61_card 	0
scalar barabasi_100nodes_network.content_distribution 	repo-61_price 	0
scalar barabasi_100nodes_network.content_distribution 	repo-62_card 	0
scalar barabasi_100nodes_network.content_distribution 	repo-62_price 	0
scalar barabasi_100nodes_network.content_distribution 	repo-63_card 	0
scalar barabasi_100nodes_network.content_distribution 	repo-63_price 	0
scalar barabasi_100nodes_network.content_distribution 	repo-64_card 	0
scalar barabasi_100nodes_network.content_distribution 	repo-64_price 	0
scalar barabasi_100nodes_network.content_distribution 	repo-65_card 	0
scalar barabasi_100nodes_network.content_distribution 	repo-65_price 	0
scalar barabasi_100nodes_network.content_distribution 	repo-66_card 	0
scalar barabasi_100nodes_network.content_distribution 	repo-66_price 	0
scalar barabasi_100nodes_network.content_distribution 	repo-67_card 	0
scalar barabasi_100nodes_network.content_distribution 	repo-67_price 	0
scalar barabasi_100nodes_network.content_distribution 	repo-68_card 	0
scalar barabasi_100nodes_network.content_distribution 	repo-68_price 	0
scalar barabasi_100nodes_network.content_distribution 	repo-69_card 	0
scalar barabasi_100nodes_network.content_distribution 	repo-69_price 	0
scalar barabasi_100nodes_network.content_distribution 	repo-70_card 	0
scalar barabasi_100nodes_network.content_distribution 	repo-70_price 	0
scalar barabasi_100nodes_network.content_distribution 	repo-71_card 	0
scalar barabasi_100nodes_network.content_distribution 	repo-71_price 	0
scalar barabasi_100nodes_network.content_distribution 	repo-72_card 	0
scalar barabasi_100nodes_network.content_distribution 	repo-72_price 	0
scalar barabasi_100nodes_network.content_distribution 	repo-73_card 	0
scalar barabasi_100nodes_network.content_distribution 	repo-73_price 	0
scalar barabasi_100nodes_network.content_distribution 	repo-74_card 	0
scalar barabasi_100nodes_network.content_distribution 	repo-74_price 	0
scalar barabasi_100nodes_network.content_distribution 	repo-75_card 	0
scalar barabasi_100nodes_network.content_distribution 	repo-75_price 	0
scalar barabasi_100nodes_network.content_distribution 	repo-76_card 	0
scalar barabasi_100nodes_network.content_distribution 	repo-76_price 	0
scalar barabasi_100nodes_network.content_distribution 	repo-77_card 	0
scalar barabasi_100nodes_network.content_distribution 	repo-77_price 	0
scalar barabasi_100nodes_network.content_distribution 	repo-78_card 	0
scalar barabasi_100nodes_network.content_distribution 	repo-78_price 	0
scalar barabasi_100nodes_network.content_distribution 	repo-79_card 	0
scalar barabasi_100nodes_network.content_distribution 	repo-79_price 	0
scalar barabasi_100nodes_network.content_distribution 	repo-80_card 	0
scalar barabasi_100nodes_network.content_distribution 	repo-80_price 	0
scalar barabasi_100nodes_network.content_distribution 	repo-81_card 	0
scalar barabasi_100nodes_network.content_distribution 	repo-81_price 	0
scalar barabasi_100nodes_network.content_distribution 	repo-82_card 	0
scalar barabasi_100nodes_network.content_distribution 	repo-82_price 	0
scalar barabasi_100nodes_network.content_distribution 	repo-83_card 	0
scalar barabasi_100nodes_network.content_distribution 	repo-83_price 	0
scalar barabasi_100nodes_network.content_distribution 	repo-84_card 	0
scalar barabasi_100nodes_network.content_distribution 	repo-84_price 	0
scalar barabasi_100nodes_network.content_distribution 	repo-85_card 	0
scalar barabasi_100nodes_network.content_distribution 	repo-85_price 	0
scalar barabasi_100nodes_network.content_distribution 	repo-86_card 	0
scalar barabasi_100nodes_network.content_distribution 	repo-86_price 	0
scalar barabasi_100nodes_network.content_distribution 	repo-87_card 	0
scalar barabasi_100nodes_network.content_distribution 	repo-87_price 	0
scalar barabasi_100nodes_network.content_distribution 	repo-88_card 	0
scalar barabasi_100nodes_network.content_distribution 	repo-88_price 	0
scalar barabasi_100nodes_network.content_distribution 	repo-89_card 	0
scalar barabasi_100nodes_network.content_distribution 	repo-89_price 	0
scalar barabasi_100nodes_network.content_distribution 	repo-90_card 	0
scalar barabasi_100nodes_network.content_distribution 	repo-90_price 	0
scalar barabasi_100nodes_network.content_distribution 	repo-91_card 	0
scalar barabasi_100nodes_network.content_distribution 	repo-91_price 	0
scalar barabasi_100nodes_network.content_distribution 	repo-92_card 	0
scalar barabasi_100nodes_network.content_distribution 	repo-92_price 	0
scalar barabasi_100nodes_network.content_distribution 	repo-93_card 	0
scalar barabasi_100nodes_network.content_distribution 	repo-93_price 	0
scalar barabasi_100nodes_network.content_distribution 	repo-94_card 	0
scalar barabasi_100nodes_network.content_distribution 	repo-94_price 	0
scalar barabasi_100nodes_network.content_distribution 	repo-95_card 	0
scalar barabasi_100nodes_network.content_distribution 	repo-95_price 	0
scalar barabasi_100nodes_network.content_distribution 	repo-96_card 	0
scalar barabasi_100nodes_network.content_distribution 	repo-96_price 	0
scalar barabasi_100nodes_network.content_distribution 	repo-97_card 	0
scalar barabasi_100nodes_network.content_distribution 	repo-97_price 	0
scalar barabasi_100nodes_network.content_distribution 	repo-98_card 	0
scalar barabasi_100nodes_network.content_distribution 	repo-98_price 	0
scalar barabasi_100nodes_network.content_distribution 	repo-99_card 	0
scalar barabasi_100nodes_network.content_distribution 	repo-99_price 	0
scalar barabasi_100nodes_network.statistics 	stabilization_time 	355.7
scalar barabasi_100nodes_network.statistics 	p_hit 	0.11393285962978
scalar barabasi_100nodes_network.statistics 	interests 	989853.94
scalar barabasi_100nodes_network.statistics 	data 	508180.26
scalar barabasi_100nodes_network.statistics 	hdistance 	1.8940690487159
scalar barabasi_100nodes_network.statistics 	avg_time 	0
scalar barabasi_100nodes_network.statistics 	downloads 	17996865
scalar barabasi_100nodes_network.statistics 	total_cost 	0
scalar barabasi_100nodes_network.statistics 	total_replicas 	1000000
scalar barabasi_100nodes_network.statistics 	"representations_downloaded 0.373353:0:0:0:0.626647:" 	0
scalar barabasi_100nodes_network.statistics 	"slots_per_representation 100:233:500:833:1167:" 	0
scalar barabasi_100nodes_network.statistics 	inner_hit 	238.57071123221
scalar barabasi_100nodes_network.statistics 	execution_time 	2068
scalar barabasi_100nodes_network.node[0].core_layer 	interests[0] 	8554731
scalar barabasi_100nodes_network.node[0].core_layer 	data[0] 	5571657
scalar barabasi_100nodes_network.node[0].core_layer 	slots_sent[face$o[1]->client[0]] 	127131939
scalar barabasi_100nodes_network.node[0].core_layer 	slots_sent[face$o[2]->node[1]] 	101099810
scalar barabasi_100nodes_network.node[0].core_layer 	slots_sent[face$o[3]->node[2]] 	1586853334
scalar barabasi_100nodes_network.node[0].core_layer 	slots_sent[face$o[4]->node[5]] 	377675523
scalar barabasi_100nodes_network.node[0].core_layer 	slots_sent[face$o[5]->node[10]] 	194883015
scalar barabasi_100nodes_network.node[0].core_layer 	slots_sent[face$o[6]->node[11]] 	100006052
scalar barabasi_100nodes_network.node[0].core_layer 	slots_sent[face$o[7]->node[15]] 	286479715
scalar barabasi_100nodes_network.node[0].core_layer 	slots_sent[face$o[8]->node[21]] 	285362937
scalar barabasi_100nodes_network.node[0].core_layer 	slots_sent[face$o[9]->node[22]] 	100735246
scalar barabasi_100nodes_network.node[0].core_layer 	slots_sent[face$o[10]->node[28]] 	100834639
scalar barabasi_100nodes_network.node[0].core_layer 	slots_sent[face$o[11]->node[37]] 	100549266
scalar barabasi_100nodes_network.node[0].core_layer 	slots_sent[face$o[12]->node[44]] 	100975111
scalar barabasi_100nodes_network.node[0].core_layer 	slots_sent[face$o[13]->node[58]] 	194184157
scalar barabasi_100nodes_network.node[0].core_layer 	slots_sent[face$o[14]->node[73]] 	194821460
scalar barabasi_100nodes_network.node[0].core_layer 	slots_sent[face$o[15]->node[74]] 	71281815
scalar barabasi_100nodes_network.node[0].core_layer 	slots_sent[face$o[16]->node[93]] 	100446436
scalar barabasi_100nodes_network.node[0].content_store 	p_hit[0] 	0.04587765529974
scalar barabasi_100nodes_network.node[0].content_store 	hits[0] 	392471
scalar barabasi_100nodes_network.node[0].content_store 	misses[0] 	8162260
scalar barabasi_100nodes_network.node[0].content_store 	decision_yes[0] 	2903774
scalar barabasi_100nodes_network.node[0].content_store 	decision_no[0] 	2667883
scalar barabasi_100nodes_network.node[0].content_store 	decision_ratio[0] 	0.52116883720588
scalar barabasi_100nodes_network.node[0].proactive_component 	hdistance[0].proactive_component 	2.9600048946588
scalar barabasi_100nodes_network.node[0].proactive_component 	downloads[0].proactive_component 	3203492
scalar barabasi_100nodes_network.node[0].proactive_component 	avg_time[0].proactive_component 	0
scalar barabasi_100nodes_network.node[1].core_layer 	interests[1] 	243326
scalar barabasi_100nodes_network.node[1].core_layer 	data[1] 	144274
scalar barabasi_100nodes_network.node[1].core_layer 	slots_sent[face$o[1]->client[1]] 	143121146
scalar barabasi_100nodes_network.node[1].core_layer 	slots_sent[face$o[2]->node[0]] 	0
scalar barabasi_100nodes_network.node[1].content_store 	p_hit[1] 	0.40707528172082
scalar barabasi_100nodes_network.node[1].content_store 	hits[1] 	99052
scalar barabasi_100nodes_network.node[1].content_store 	misses[1] 	144274
scalar barabasi_100nodes_network.node[1].content_store 	decision_yes[1] 	81230
scalar barabasi_100nodes_network.node[1].content_store 	decision_no[1] 	63044
scalar barabasi_100nodes_network.node[1].content_store 	decision_ratio[1] 	0.5630259090342
scalar barabasi_100nodes_network.node[1].proactive_component 	hdistance[1].proactive_component 	4.6563517484184
scalar barabasi_100nodes_network.node[1].proactive_component 	downloads[1].proactive_component 	75554
scalar barabasi_100nodes_network.node[1].proactive_component 	avg_time[1].proactive_component 	0
scalar barabasi_100nodes_network.node[2].core_layer 	interests[2] 	16491244
scalar barabasi_100nodes_network.node[2].core_layer 	data[2] 	10813342
scalar barabasi_100nodes_network.node[2].core_layer 	slots_sent[face$o[1]->client[2]] 	123778254
scalar barabasi_100nodes_network.node[2].core_layer 	slots_sent[face$o[2]->node[0]] 	1721947931
scalar barabasi_100nodes_network.node[2].core_layer 	slots_sent[face$o[3]->node[3]] 	195863774
scalar barabasi_100nodes_network.node[2].core_layer 	slots_sent[face$o[4]->node[4]] 	335136666
scalar barabasi_100nodes_network.node[2].core_layer 	slots_sent[face$o[5]->node[6]] 	101602759
scalar barabasi_100nodes_network.node[2].core_layer 	slots_sent[face$o[6]->node[7]] 	982838111
scalar barabasi_100nodes_network.node[2].core_layer 	slots_sent[face$o[7]->node[8]] 	688425881
scalar barabasi_100nodes_network.node[2].core_layer 	slots_sent[face$o[8]->node[13]] 	464446100
scalar barabasi_100nodes_network.node[2].core_layer 	slots_sent[face$o[9]->node[16]] 	470443984
scalar barabasi_100nodes_network.node[2].core_layer 	slots_sent[face$o[10]->node[18]] 	352591462
scalar barabasi_100nodes_network.node[2].core_layer 	slots_sent[face$o[11]->node[25]] 	194265677
scalar barabasi_100nodes_network.node[2].core_layer 	slots_sent[face$o[12]->node[26]] 	352552946
scalar barabasi_100nodes_network.node[2].core_layer 	slots_sent[face$o[13]->node[29]] 	100305308
scalar barabasi_100nodes_network.node[2].core_layer 	slots_sent[face$o[14]->node[32]] 	260950934
scalar barabasi_100nodes_network.node[2].core_layer 	slots_sent[face$o[15]->node[33]] 	100987123
scalar barabasi_100nodes_network.node[2].core_layer 	slots_sent[face$o[16]->node[34]] 	100335220
scalar barabasi_100nodes_network.node[2].core_layer 	slots_sent[face$o[17]->node[36]] 	194856139
scalar barabasi_100nodes_network.node[2].core_layer 	slots_sent[face$o[18]->node[41]] 	534228575
scalar barabasi_100nodes_network.node[2].core_layer 	slots_sent[face$o[19]->node[45]] 	71944470
scalar barabasi_100nodes_network.node[2].core_layer 	slots_sent[face$o[20]->node[59]] 	101723455
scalar barabasi_100nodes_network.node[2].core_layer 	slots_sent[face$o[21]->node[62]] 	287445050
scalar barabasi_100nodes_network.node[2].core_layer 	slots_sent[face$o[22]->node[79]] 	101218153
scalar barabasi_100nodes_network.node[2].content_store 	p_hit[2] 	0.039619024495666
scalar barabasi_100nodes_network.node[2].content_store 	hits[2] 	653367
scalar barabasi_100nodes_network.node[2].content_store 	misses[2] 	15837877
scalar barabasi_100nodes_network.node[2].content_store 	decision_yes[2] 	5707078
scalar barabasi_100nodes_network.node[2].content_store 	decision_no[2] 	5106264
scalar barabasi_100nodes_network.node[2].content_store 	decision_ratio[2] 	0.52778114296209
scalar barabasi_100nodes_network.node[2].proactive_component 	hdistance[2].proactive_component 	3.1501795345608
scalar barabasi_100nodes_network.node[2].proactive_component 	downloads[2].proactive_component 	6130296
scalar barabasi_100nodes_network.node[2].proactive_component 	avg_time[2].proactive_component 	0
scalar barabasi_100nodes_network.node[3].core_layer 	interests[3] 	445920
scalar barabasi_100nodes_network.node[3].core_layer 	data[3] 	282146
scalar barabasi_100nodes_network.node[3].core_layer 	slots_sent[face$o[1]->client[3]] 	140613435
scalar barabasi_100nodes_network.node[3].core_layer 	slots_sent[face$o[2]->node[2]] 	0
scalar barabasi_100nodes_network.node[3].core_layer 	slots_sent[face$o[3]->node[52]] 	100471589
scalar barabasi_100nodes_network.node[3].content_store 	p_hit[3] 	0.23309786508791
scalar barabasi_100nodes_network.node[3].content_store 	hits[3] 	103943
scalar barabasi_100nodes_network.node[3].content_store 	misses[3] 	341977
scalar barabasi_100nodes_network.node[3].content_store 	decision_yes[3] 	157122
scalar barabasi_100nodes_network.node[3].content_store 	decision_no[3] 	125024
scalar barabasi_100nodes_network.node[3].content_store 	decision_ratio[3] 	0.55688189802443
scalar barabasi_100nodes_network.node[3].proactive_component 	hdistance[3].proactive_component 	4.1716472692328
scalar barabasi_100nodes_network.node[3].proactive_component 	downloads[3].proactive_component 	149848
scalar barabasi_100nodes_network.node[3].proactive_component 	avg_time[3].proactive_component 	0
scalar barabasi_100nodes_network.node[4].core_layer 	interests[4] 	1069018
scalar barabasi_100nodes_network.node[4].core_layer 	repo_load[4] 	293771
scalar barabasi_100nodes_network.node[4].core_layer 	data[4] 	491828
scalar barabasi_100nodes_network.node[4].core_layer 	slots_sent[face$o[1]->client[4]] 	119704876
scalar barabasi_100nodes_network.node[4].core_layer 	slots_sent[face$o[2]->node[2]] 	0
scalar barabasi_100nodes_network.node[4].core_layer 	slots_sent[face$o[3]->node[27]] 	195577162
scalar barabasi_100nodes_network.node[4].core_layer 	slots_sent[face$o[4]->node[30]] 	115521213
scalar barabasi_100nodes_network.node[4].core_layer 	slots_sent[face$o[5]->node[85]] 	71610161
scalar barabasi_100nodes_network.node[4].content_store 	p_hit[4] 	0.10177377742938
scalar barabasi_100nodes_network.node[4].content_store 	hits[4] 	108798
scalar barabasi_100nodes_network.node[4].content_store 	misses[4] 	960220
scalar barabasi_100nodes_network.node[4].content_store 	decision_yes[4] 	267998
scalar barabasi_100nodes_network.node[4].content_store 	decision_no[4] 	517601
scalar barabasi_100nodes_network.node[4].content_store 	decision_ratio[4] 	0.34113841794605
scalar barabasi_100nodes_network.node[4].proactive_component 	hdistance[4].proactive_component 	3.1317102001526
scalar barabasi_100nodes_network.node[4].proactive_component 	downloads[4].proactive_component 	400994
scalar barabasi_100nodes_network.node[4].proactive_component 	avg_time[4].proactive_component 	0
scalar barabasi_100nodes_network.node[5].core_layer 	interests[5] 	838392
scalar barabasi_100nodes_network.node[5].core_layer 	data[5] 	545143
scalar barabasi_100nodes_network.node[5].core_layer 	slots_sent[face$o[1]->client[5]] 	141628388
scalar barabasi_100nodes_network.node[5].core_layer 	slots_sent[face$o[2]->node[0]] 	0
scalar barabasi_100nodes_network.node[5].core_layer 	slots_sent[face$o[3]->node[9]] 	100214811
scalar barabasi_100nodes_network.node[5].core_layer 	slots_sent[face$o[4]->node[35]] 	195320149
scalar barabasi_100nodes_network.node[5].content_store 	p_hit[5] 	0.13870957738146
scalar barabasi_100nodes_network.node[5].content_store 	hits[5] 	116293
scalar barabasi_100nodes_network.node[5].content_store 	misses[5] 	722099
scalar barabasi_100nodes_network.node[5].content_store 	decision_yes[5] 	302869
scalar barabasi_100nodes_network.node[5].content_store 	decision_no[5] 	242274
scalar barabasi_100nodes_network.node[5].content_store 	decision_ratio[5] 	0.55557716048817
scalar barabasi_100nodes_network.node[5].proactive_component 	hdistance[5].proactive_component 	4.6581541465026
scalar barabasi_100nodes_network.node[5].proactive_component 	downloads[5].proactive_component 	290944
scalar barabasi_100nodes_network.node[5].proactive_component 	avg_time[5].proactive_component 	0
scalar barabasi_100nodes_network.node[6].core_layer 	interests[6] 	244794
scalar barabasi_100nodes_network.node[6].core_layer 	data[6] 	145601
scalar barabasi_100nodes_network.node[6].core_layer 	slots_sent[face$o[1]->client[6]] 	142644982
scalar barabasi_100nodes_network.node[6].core_layer 	slots_sent[face$o[2]->node[2]] 	0
scalar barabasi_100nodes_network.node[6].content_store 	p_hit[6] 	0.40521009501867
scalar barabasi_100nodes_network.node[6].content_store 	hits[6] 	99193
scalar barabasi_100nodes_network.node[6].content_store 	misses[6] 	145601
scalar barabasi_100nodes_network.node[6].content_store 	decision_yes[6] 	81577
scalar barabasi_100nodes_network.node[6].content_store 	decision_no[6] 	64024
scalar barabasi_100nodes_network.node[6].content_store 	decision_ratio[6] 	0.56027774534516
scalar barabasi_100nodes_network.node[6].proactive_component 	hdistance[6].proactive_component 	4.1656901591426
scalar barabasi_100nodes_network.node[6].proactive_component 	downloads[6].proactive_component 	76975
scalar barabasi_100nodes_network.node[6].proactive_component 	avg_time[6].proactive_component 	0
scalar barabasi_100nodes_network.node[7].core_layer 	interests[7] 	6215158
scalar barabasi_100nodes_network.node[7].core_layer 	data[7] 	4074180
scalar barabasi_100nodes_network.node[7].core_layer 	slots_sent[face$o[1]->client[7]] 	130343889
scalar barabasi_100nodes_network.node[7].core_layer 	slots_sent[face$o[2]->node[2]] 	1782919171
scalar barabasi_100nodes_network.node[7].core_layer 	slots_sent[face$o[3]->node[23]] 	551385607
scalar barabasi_100nodes_network.node[7].core_layer 	slots_sent[face$o[4]->node[31]] 	375953429
scalar barabasi_100nodes_network.node[7].core_layer 	slots_sent[face$o[5]->node[49]] 	71254903
scalar barabasi_100nodes_network.node[7].core_layer 	slots_sent[face$o[6]->node[90]] 	72574441
scalar barabasi_100nodes_network.node[7].content_store 	p_hit[7] 	0.048915087918923
scalar barabasi_100nodes_network.node[7].content_store 	hits[7] 	304015
scalar barabasi_100nodes_network.node[7].content_store 	misses[7] 	5911143
scalar barabasi_100nodes_network.node[7].content_store 	decision_yes[7] 	2163411
scalar barabasi_100nodes_network.node[7].content_store 	decision_no[7] 	1910769
scalar barabasi_100nodes_network.node[7].content_store 	decision_ratio[7] 	0.53100525749967
scalar barabasi_100nodes_network.node[7].proactive_component 	hdistance[7].proactive_component 	3.8718279607408
scalar barabasi_100nodes_network.node[7].proactive_component 	downloads[7].proactive_component 	2292965
scalar barabasi_100nodes_network.node[7].proactive_component 	avg_time[7].proactive_component 	0
scalar barabasi_100nodes_network.node[8].core_layer 	interests[8] 	1532568
scalar barabasi_100nodes_network.node[8].core_layer 	data[8] 	1002496
scalar barabasi_100nodes_network.node[8].core_layer 	slots_sent[face$o[1]->client[8]] 	138092725
scalar barabasi_100nodes_network.node[8].core_layer 	slots_sent[face$o[2]->node[2]] 	0
scalar barabasi_100nodes_network.node[8].core_layer 	slots_sent[face$o[3]->node[12]] 	71287465
scalar barabasi_100nodes_network.node[8].core_layer 	slots_sent[face$o[4]->node[14]] 	100373902
scalar barabasi_100nodes_network.node[8].core_layer 	slots_sent[face$o[5]->node[17]] 	100866833
scalar barabasi_100nodes_network.node[8].core_layer 	slots_sent[face$o[6]->node[39]] 	168308837
scalar barabasi_100nodes_network.node[8].core_layer 	slots_sent[face$o[7]->node[61]] 	100574486
scalar barabasi_100nodes_network.node[8].core_layer 	slots_sent[face$o[8]->node[66]] 	100903406
scalar barabasi_100nodes_network.node[8].content_store 	p_hit[8] 	0.095262330937355
scalar barabasi_100nodes_network.node[8].content_store 	hits[8] 	145996
scalar barabasi_100nodes_network.node[8].content_store 	misses[8] 	1386572
scalar barabasi_100nodes_network.node[8].content_store 	decision_yes[8] 	551243
scalar barabasi_100nodes_network.node[8].content_store 	decision_no[8] 	451253
scalar barabasi_100nodes_network.node[8].content_store 	decision_ratio[8] 	0.54987052317416
scalar barabasi_100nodes_network.node[8].proactive_component 	hdistance[8].proactive_component 	4.1722546295787
scalar barabasi_100nodes_network.node[8].proactive_component 	downloads[8].proactive_component 	542058
scalar barabasi_100nodes_network.node[8].proactive_component 	avg_time[8].proactive_component 	0
scalar barabasi_100nodes_network.node[9].core_layer 	interests[9] 	238250
scalar barabasi_100nodes_network.node[9].core_layer 	data[9] 	139660
scalar barabasi_100nodes_network.node[9].core_layer 	slots_sent[face$o[1]->client[9]] 	146618232
scalar barabasi_100nodes_network.node[9].core_layer 	slots_sent[face$o[2]->node[5]] 	0
scalar barabasi_100nodes_network.node[9].content_store 	p_hit[9] 	0.41380902413431
scalar barabasi_100nodes_network.node[9].content_store 	hits[9] 	98590
scalar barabasi_100nodes_network.node[9].content_store 	misses[9] 	139660
scalar barabasi_100nodes_network.node[9].content_store 	decision_yes[9] 	80833
scalar barabasi_100nodes_network.node[9].content_store 	decision_no[9] 	58827
scalar barabasi_100nodes_network.node[9].content_store 	decision_ratio[9] 	0.57878419017614
scalar barabasi_100nodes_network.node[9].proactive_component 	hdistance[9].proactive_component 	5.6755673478605
scalar barabasi_100nodes_network.node[9].proactive_component 	downloads[9].proactive_component 	70856
scalar barabasi_100nodes_network.node[9].proactive_component 	avg_time[9].proactive_component 	0
scalar barabasi_100nodes_network.node[10].core_layer 	interests[10] 	443548
scalar barabasi_100nodes_network.node[10].core_layer 	data[10] 	279562
scalar barabasi_100nodes_network.node[10].core_layer 	slots_sent[face$o[1]->client[10]] 	141910282
scalar barabasi_100nodes_network.node[10].core_layer 	slots_sent[face$o[2]->node[0]] 	0
scalar barabasi_100nodes_network.node[10].core_layer 	slots_sent[face$o[3]->node[71]] 	100666856
scalar barabasi_100nodes_network.node[10].content_store 	p_hit[10] 	0.23570842389099
scalar barabasi_100nodes_network.node[10].content_store 	hits[10] 	104548
scalar barabasi_100nodes_network.node[10].content_store 	misses[10] 	339000
scalar barabasi_100nodes_network.node[10].content_store 	decision_yes[10] 	156445
scalar barabasi_100nodes_network.node[10].content_store 	decision_no[10] 	123117
scalar barabasi_100nodes_network.node[10].content_store 	decision_ratio[10] 	0.55960752892024
scalar barabasi_100nodes_network.node[10].proactive_component 	hdistance[10].proactive_component 	4.6530741930032
scalar barabasi_100nodes_network.node[10].proactive_component 	downloads[10].proactive_component 	147925
scalar barabasi_100nodes_network.node[10].proactive_component 	avg_time[10].proactive_component 	0
scalar barabasi_100nodes_network.node[11].core_layer 	interests[11] 	242094
scalar barabasi_100nodes_network.node[11].core_layer 	data[11] 	142662
scalar barabasi_100nodes_network.node[11].core_layer 	slots_sent[face$o[1]->client[11]] 	143332094
scalar barabasi_100nodes_network.node[11].core_layer 	slots_sent[face$o[2]->node[0]] 	0
scalar barabasi_100nodes_network.node[11].content_store 	p_hit[11] 	0.41071649855015
scalar barabasi_100nodes_network.node[11].content_store 	hits[11] 	99432
scalar barabasi_100nodes_network.node[11].content_store 	misses[11] 	142662
scalar barabasi_100nodes_network.node[11].content_store 	decision_yes[11] 	80356
scalar barabasi_100nodes_network.node[11].content_store 	decision_no[11] 	62306
scalar barabasi_100nodes_network.node[11].content_store 	decision_ratio[11] 	0.56326141509302
scalar barabasi_100nodes_network.node[11].proactive_component 	hdistance[11].proactive_component 	4.6506336213228
scalar barabasi_100nodes_network.node[11].proactive_component 	downloads[11].proactive_component 	74887
scalar barabasi_100nodes_network.node[11].proactive_component 	avg_time[11].proactive_component 	0
scalar barabasi_100nodes_network.node[12].core_layer 	interests[12] 	271462
scalar barabasi_100nodes_network.node[12].core_layer 	repo_load[12] 	98582
scalar barabasi_100nodes_network.node[12].core_layer 	data[12] 	99403
scalar barabasi_100nodes_network.node[12].core_layer 	slots_sent[face$o[1]->client[12]] 	113057588
scalar barabasi_100nodes_network.node[12].core_layer 	slots_sent[face$o[2]->node[8]] 	0
scalar barabasi_100nodes_network.node[12].content_store 	p_hit[12] 	0.27067140152213
scalar barabasi_100nodes_network.node[12].content_store 	hits[12] 	73477
scalar barabasi_100nodes_network.node[12].content_store 	misses[12] 	197985
scalar barabasi_100nodes_network.node[12].content_store 	decision_yes[12] 	57495
scalar barabasi_100nodes_network.node[12].content_store 	decision_no[12] 	140490
scalar barabasi_100nodes_network.node[12].content_store 	decision_ratio[12] 	0.29040078793848
scalar barabasi_100nodes_network.node[12].proactive_component 	hdistance[12].proactive_component 	3.1349981275632
scalar barabasi_100nodes_network.node[12].proactive_component 	downloads[12].proactive_component 	109483
scalar barabasi_100nodes_network.node[12].proactive_component 	avg_time[12].proactive_component 	0
scalar barabasi_100nodes_network.node[13].core_layer 	interests[13] 	1027448
scalar barabasi_100nodes_network.node[13].core_layer 	data[13] 	674154
scalar barabasi_100nodes_network.node[13].core_layer 	slots_sent[face$o[1]->client[13]] 	139719305
scalar barabasi_100nodes_network.node[13].core_layer 	slots_sent[face$o[2]->node[2]] 	0
scalar barabasi_100nodes_network.node[13].core_layer 	slots_sent[face$o[3]->node[67]] 	99853235
scalar barabasi_100nodes_network.node[13].core_layer 	slots_sent[face$o[4]->node[78]] 	284670640
scalar barabasi_100nodes_network.node[13].content_store 	p_hit[13] 	0.11472892058771
scalar barabasi_100nodes_network.node[13].content_store 	hits[13] 	117878
scalar barabasi_100nodes_network.node[13].content_store 	misses[13] 	909570
scalar barabasi_100nodes_network.node[13].content_store 	decision_yes[13] 	372100
scalar barabasi_100nodes_network.node[13].content_store 	decision_no[13] 	302054
scalar barabasi_100nodes_network.node[13].content_store 	decision_ratio[13] 	0.55195103789342
scalar barabasi_100nodes_network.node[13].proactive_component 	hdistance[13].proactive_component 	4.1746879194725
scalar barabasi_100nodes_network.node[13].proactive_component 	downloads[13].proactive_component 	362807
scalar barabasi_100nodes_network.node[13].proactive_component 	avg_time[13].proactive_component 	0
scalar barabasi_100nodes_network.node[14].core_layer 	interests[14] 	239287
scalar barabasi_100nodes_network.node[14].core_layer 	data[14] 	140472
scalar barabasi_100nodes_network.node[14].core_layer 	slots_sent[face$o[1]->client[14]] 	146177485
scalar barabasi_100nodes_network.node[14].core_layer 	slots_sent[face$o[2]->node[8]] 	0
scalar barabasi_100nodes_network.node[14].content_store 	p_hit[14] 	0.41295599008722
scalar barabasi_100nodes_network.node[14].content_store 	hits[14] 	98815
scalar barabasi_100nodes_network.node[14].content_store 	misses[14] 	140472
scalar barabasi_100nodes_network.node[14].content_store 	decision_yes[14] 	80906
scalar barabasi_100nodes_network.node[14].content_store 	decision_no[14] 	59566
scalar barabasi_100nodes_network.node[14].content_store 	decision_ratio[14] 	0.57595819807506
scalar barabasi_100nodes_network.node[14].proactive_component 	hdistance[14].proactive_component 	5.1817001675042
scalar barabasi_100nodes_network.node[14].proactive_component 	downloads[14].proactive_component 	71640
scalar barabasi_100nodes_network.node[14].proactive_component 	avg_time[14].proactive_component 	0
scalar barabasi_100nodes_network.node[15].core_layer 	interests[15] 	642394
scalar barabasi_100nodes_network.node[15].core_layer 	data[15] 	412351
scalar barabasi_100nodes_network.node[15].core_layer 	slots_sent[face$o[1]->client[15]] 	141618966
scalar barabasi_100nodes_network.node[15].core_layer 	slots_sent[face$o[2]->node[0]] 	0
scalar barabasi_100nodes_network.node[15].core_layer 	slots_sent[face$o[3]->node[40]] 	100448410
scalar barabasi_100nodes_network.node[15].core_layer 	slots_sent[face$o[4]->node[56]] 	99888018
scalar barabasi_100nodes_network.node[15].content_store 	p_hit[15] 	0.17491446059583
scalar barabasi_100nodes_network.node[15].content_store 	hits[15] 	112364
scalar barabasi_100nodes_network.node[15].content_store 	misses[15] 	530030
scalar barabasi_100nodes_network.node[15].content_store 	decision_yes[15] 	229845
scalar barabasi_100nodes_network.node[15].content_store 	decision_no[15] 	182506
scalar barabasi_100nodes_network.node[15].content_store 	decision_ratio[15] 	0.55740134012043
scalar barabasi_100nodes_network.node[15].proactive_component 	hdistance[15].proactive_component 	4.6507089530117
scalar barabasi_100nodes_network.node[15].proactive_component 	downloads[15].proactive_component 	219267
scalar barabasi_100nodes_network.node[15].proactive_component 	avg_time[15].proactive_component 	0
scalar barabasi_100nodes_network.node[16].core_layer 	interests[16] 	6101711
scalar barabasi_100nodes_network.node[16].core_layer 	repo_load[16] 	5074470
scalar barabasi_100nodes_network.node[16].core_layer 	data[16] 	678094
scalar barabasi_100nodes_network.node[16].core_layer 	slots_sent[face$o[1]->client[16]] 	108352630
scalar barabasi_100nodes_network.node[16].core_layer 	slots_sent[face$o[2]->node[2]] 	1957322416
scalar barabasi_100nodes_network.node[16].core_layer 	slots_sent[face$o[3]->node[19]] 	466511878
scalar barabasi_100nodes_network.node[16].core_layer 	slots_sent[face$o[4]->node[20]] 	100960079
scalar barabasi_100nodes_network.node[16].content_store 	p_hit[16] 	0.015412398260095
scalar barabasi_100nodes_network.node[16].content_store 	hits[16] 	94042
scalar barabasi_100nodes_network.node[16].content_store 	misses[16] 	6007669
scalar barabasi_100nodes_network.node[16].content_store 	decision_yes[16] 	377352
scalar barabasi_100nodes_network.node[16].content_store 	decision_no[16] 	5375212
scalar barabasi_100nodes_network.node[16].content_store 	decision_ratio[16] 	0.065597184142584
scalar barabasi_100nodes_network.node[16].proactive_component 	hdistance[16].proactive_component 	1.5421397639615
scalar barabasi_100nodes_network.node[16].proactive_component 	downloads[16].proactive_component 	2412911
scalar barabasi_100nodes_network.node[16].proactive_component 	avg_time[16].proactive_component 	0
scalar barabasi_100nodes_network.node[17].core_layer 	interests[17] 	239997
scalar barabasi_100nodes_network.node[17].core_layer 	data[17] 	141208
scalar barabasi_100nodes_network.node[17].core_layer 	slots_sent[face$o[1]->client[17]] 	146239793
scalar barabasi_100nodes_network.node[17].core_layer 	slots_sent[face$o[2]->node[8]] 	0
scalar barabasi_100nodes_network.node[17].content_store 	p_hit[17] 	0.41162597865807
scalar barabasi_100nodes_network.node[17].content_store 	hits[17] 	98789
scalar barabasi_100nodes_network.node[17].content_store 	misses[17] 	141208
scalar barabasi_100nodes_network.node[17].content_store 	decision_yes[17] 	81299
scalar barabasi_100nodes_network.node[17].content_store 	decision_no[17] 	59909
scalar barabasi_100nodes_network.node[17].content_store 	decision_ratio[17] 	0.57573933488188
scalar barabasi_100nodes_network.node[17].proactive_component 	hdistance[17].proactive_component 	5.1927259562499
scalar barabasi_100nodes_network.node[17].proactive_component 	downloads[17].proactive_component 	71817
scalar barabasi_100nodes_network.node[17].proactive_component 	avg_time[17].proactive_component 	0
scalar barabasi_100nodes_network.node[18].core_layer 	interests[18] 	792089
scalar barabasi_100nodes_network.node[18].core_layer 	data[18] 	511789
scalar barabasi_100nodes_network.node[18].core_layer 	slots_sent[face$o[1]->client[18]] 	139763341
scalar barabasi_100nodes_network.node[18].core_layer 	slots_sent[face$o[2]->node[2]] 	0
scalar barabasi_100nodes_network.node[18].core_layer 	slots_sent[face$o[3]->node[53]] 	100356028
scalar barabasi_100nodes_network.node[18].core_layer 	slots_sent[face$o[4]->node[68]] 	71646960
scalar barabasi_100nodes_network.node[18].core_layer 	slots_sent[face$o[5]->node[72]] 	100338632
scalar barabasi_100nodes_network.node[18].content_store 	p_hit[18] 	0.14747711431417
scalar barabasi_100nodes_network.node[18].content_store 	hits[18] 	116815
scalar barabasi_100nodes_network.node[18].content_store 	misses[18] 	675274
scalar barabasi_100nodes_network.node[18].content_store 	decision_yes[18] 	282486
scalar barabasi_100nodes_network.node[18].content_store 	decision_no[18] 	229303
scalar barabasi_100nodes_network.node[18].content_store 	decision_ratio[18] 	0.55195793578994
scalar barabasi_100nodes_network.node[18].proactive_component 	hdistance[18].proactive_component 	4.0742326156531
scalar barabasi_100nodes_network.node[18].proactive_component 	downloads[18].proactive_component 	274960
scalar barabasi_100nodes_network.node[18].proactive_component 	avg_time[18].proactive_component 	0
scalar barabasi_100nodes_network.node[19].core_layer 	interests[19] 	1047522
scalar barabasi_100nodes_network.node[19].core_layer 	data[19] 	679511
scalar barabasi_100nodes_network.node[19].core_layer 	slots_sent[face$o[1]->client[19]] 	137592184
scalar barabasi_100nodes_network.node[19].core_layer 	slots_sent[face$o[2]->node[16]] 	0
scalar barabasi_100nodes_network.node[19].core_layer 	slots_sent[face$o[3]->node[63]] 	100812114
scalar barabasi_100nodes_network.node[19].core_layer 	slots_sent[face$o[4]->node[70]] 	100353059
scalar barabasi_100nodes_network.node[19].core_layer 	slots_sent[face$o[5]->node[80]] 	99991996
scalar barabasi_100nodes_network.node[19].core_layer 	slots_sent[face$o[6]->node[89]] 	100156203
scalar barabasi_100nodes_network.node[19].content_store 	p_hit[19] 	0.12328332961026
scalar barabasi_100nodes_network.node[19].content_store 	hits[19] 	129142
scalar barabasi_100nodes_network.node[19].content_store 	misses[19] 	918380
scalar barabasi_100nodes_network.node[19].content_store 	decision_yes[19] 	373534
scalar barabasi_100nodes_network.node[19].content_store 	decision_no[19] 	305977
scalar barabasi_100nodes_network.node[19].content_store 	decision_ratio[19] 	0.54971001205279
scalar barabasi_100nodes_network.node[19].proactive_component 	hdistance[19].proactive_component 	4.5191507643448
scalar barabasi_100nodes_network.node[19].proactive_component 	downloads[19].proactive_component 	367766
scalar barabasi_100nodes_network.node[19].proactive_component 	avg_time[19].proactive_component 	0
scalar barabasi_100nodes_network.node[20].core_layer 	interests[20] 	242884
scalar barabasi_100nodes_network.node[20].core_layer 	data[20] 	143869
scalar barabasi_100nodes_network.node[20].core_layer 	slots_sent[face$o[1]->client[20]] 	143302340
scalar barabasi_100nodes_network.node[20].core_layer 	slots_sent[face$o[2]->node[16]] 	0
scalar barabasi_100nodes_network.node[20].content_store 	p_hit[20] 	0.40766374071573
scalar barabasi_100nodes_network.node[20].content_store 	hits[20] 	99015
scalar barabasi_100nodes_network.node[20].content_store 	misses[20] 	143869
scalar barabasi_100nodes_network.node[20].content_store 	decision_yes[20] 	81137
scalar barabasi_100nodes_network.node[20].content_store 	decision_no[20] 	62732
scalar barabasi_100nodes_network.node[20].content_store 	decision_ratio[20] 	0.56396443987238
scalar barabasi_100nodes_network.node[20].proactive_component 	hdistance[20].proactive_component 	4.4432996552321
scalar barabasi_100nodes_network.node[20].proactive_component 	downloads[20].proactive_component 	75123
scalar barabasi_100nodes_network.node[20].proactive_component 	avg_time[20].proactive_component 	0
scalar barabasi_100nodes_network.node[21].core_layer 	interests[21] 	641376
scalar barabasi_100nodes_network.node[21].core_layer 	data[21] 	411149
scalar barabasi_100nodes_network.node[21].core_layer 	slots_sent[face$o[1]->client[21]] 	141650216
scalar barabasi_100nodes_network.node[21].core_layer 	slots_sent[face$o[2]->node[0]] 	0
scalar barabasi_100nodes_network.node[21].core_layer 	slots_sent[face$o[3]->node[24]] 	99312997
scalar barabasi_100nodes_network.node[21].core_layer 	slots_sent[face$o[4]->node[57]] 	100402887
scalar barabasi_100nodes_network.node[21].content_store 	p_hit[21] 	0.17547429277054
scalar barabasi_100nodes_network.node[21].content_store 	hits[21] 	112545
scalar barabasi_100nodes_network.node[21].content_store 	misses[21] 	528831
scalar barabasi_100nodes_network.node[21].content_store 	decision_yes[21] 	228911
scalar barabasi_100nodes_network.node[21].content_store 	decision_no[21] 	182238
scalar barabasi_100nodes_network.node[21].content_store 	decision_ratio[21] 	0.55675922840625
scalar barabasi_100nodes_network.node[21].proactive_component 	hdistance[21].proactive_component 	4.6561127580149
scalar barabasi_100nodes_network.node[21].proactive_component 	downloads[21].proactive_component 	218592
scalar barabasi_100nodes_network.node[21].proactive_component 	avg_time[21].proactive_component 	0
scalar barabasi_100nodes_network.node[22].core_layer 	interests[22] 	242519
scalar barabasi_100nodes_network.node[22].core_layer 	data[22] 	143744
scalar barabasi_100nodes_network.node[22].core_layer 	slots_sent[face$o[1]->client[22]] 	142711069
scalar barabasi_100nodes_network.node[22].core_layer 	slots_sent[face$o[2]->node[0]] 	0
scalar barabasi_100nodes_network.node[22].content_store 	p_hit[22] 	0.40728767642948
scalar barabasi_100nodes_network.node[22].content_store 	hits[22] 	98775
scalar barabasi_100nodes_network.node[22].content_store 	misses[22] 	143744
scalar barabasi_100nodes_network.node[22].content_store 	decision_yes[22] 	80938
scalar barabasi_100nodes_network.node[22].content_store 	decision_no[22] 	62806
scalar barabasi_100nodes_network.node[22].content_store 	decision_ratio[22] 	0.56307045859305
scalar barabasi_100nodes_network.node[22].proactive_component 	hdistance[22].proactive_component 	4.6552108194113
scalar barabasi_100nodes_network.node[22].proactive_component 	downloads[22].proactive_component 	75420
scalar barabasi_100nodes_network.node[22].proactive_component 	avg_time[22].proactive_component 	0
scalar barabasi_100nodes_network.node[23].core_layer 	interests[23] 	5312063
scalar barabasi_100nodes_network.node[23].core_layer 	data[23] 	3522815
scalar barabasi_100nodes_network.node[23].core_layer 	slots_sent[face$o[1]->client[23]] 	131447013
scalar barabasi_100nodes_network.node[23].core_layer 	slots_sent[face$o[2]->node[7]] 	1732939426
scalar barabasi_100nodes_network.node[23].core_layer 	slots_sent[face$o[3]->node[46]] 	177049137
scalar barabasi_100nodes_network.node[23].core_layer 	slots_sent[face$o[4]->node[47]] 	100711718
scalar barabasi_100nodes_network.node[23].core_layer 	slots_sent[face$o[5]->node[51]] 	101316480
scalar barabasi_100nodes_network.node[23].core_layer 	slots_sent[face$o[6]->node[83]] 	101139935
scalar barabasi_100nodes_network.node[23].core_layer 	slots_sent[face$o[7]->node[86]] 	99577252
scalar barabasi_100nodes_network.node[23].content_store 	p_hit[23] 	0.034243193275381
scalar barabasi_100nodes_network.node[23].content_store 	hits[23] 	181902
scalar barabasi_100nodes_network.node[23].content_store 	misses[23] 	5130161
scalar barabasi_100nodes_network.node[23].content_store 	decision_yes[23] 	1841975
scalar barabasi_100nodes_network.node[23].content_store 	decision_no[23] 	1680840
scalar barabasi_100nodes_network.node[23].content_store 	decision_ratio[23] 	0.52287020465168
scalar barabasi_100nodes_network.node[23].proactive_component 	hdistance[23].proactive_component 	3.3406081642266
scalar barabasi_100nodes_network.node[23].proactive_component 	downloads[23].proactive_component 	2016725
scalar barabasi_100nodes_network.node[23].proactive_component 	avg_time[23].proactive_component 	0
scalar barabasi_100nodes_network.node[24].core_layer 	interests[24] 	237454
scalar barabasi_100nodes_network.node[24].core_layer 	data[24] 	138559
scalar barabasi_100nodes_network.node[24].core_layer 	slots_sent[face$o[1]->client[24]] 	146491306
scalar barabasi_100nodes_network.node[24].core_layer 	slots_sent[face$o[2]->node[21]] 	0
scalar barabasi_100nodes_network.node[24].content_store 	p_hit[24] 	0.41648066572894
scalar barabasi_100nodes_network.node[24].content_store 	hits[24] 	98895
scalar barabasi_100nodes_network.node[24].content_store 	misses[24] 	138559
scalar barabasi_100nodes_network.node[24].content_store 	decision_yes[24] 	80091
scalar barabasi_100nodes_network.node[24].content_store 	decision_no[24] 	58468
scalar barabasi_100nodes_network.node[24].content_store 	decision_ratio[24] 	0.57802813242012
scalar barabasi_100nodes_network.node[24].proactive_component 	hdistance[24].proactive_component 	5.6657822675615
scalar barabasi_100nodes_network.node[24].proactive_component 	downloads[24].proactive_component 	70481
scalar barabasi_100nodes_network.node[24].proactive_component 	avg_time[24].proactive_component 	0
scalar barabasi_100nodes_network.node[25].core_layer 	interests[25] 	444222
scalar barabasi_100nodes_network.node[25].core_layer 	data[25] 	279940
scalar barabasi_100nodes_network.node[25].core_layer 	slots_sent[face$o[1]->client[25]] 	140844259
scalar barabasi_100nodes_network.node[25].core_layer 	slots_sent[face$o[2]->node[2]] 	0
scalar barabasi_100nodes_network.node[25].core_layer 	slots_sent[face$o[3]->node[38]] 	100303309
scalar barabasi_100nodes_network.node[25].content_store 	p_hit[25] 	0.23524273899086
scalar barabasi_100nodes_network.node[25].content_store 	hits[25] 	104500
scalar barabasi_100nodes_network.node[25].content_store 	misses[25] 	339722
scalar barabasi_100nodes_network.node[25].content_store 	decision_yes[25] 	155831
scalar barabasi_100nodes_network.node[25].content_store 	decision_no[25] 	124109
scalar barabasi_100nodes_network.node[25].content_store 	decision_ratio[25] 	0.55665856969351
scalar barabasi_100nodes_network.node[25].proactive_component 	hdistance[25].proactive_component 	4.1700094613728
scalar barabasi_100nodes_network.node[25].proactive_component 	downloads[25].proactive_component 	149027
scalar barabasi_100nodes_network.node[25].proactive_component 	avg_time[25].proactive_component 	0
scalar barabasi_100nodes_network.node[26].core_layer 	interests[26] 	785139
scalar barabasi_100nodes_network.node[26].core_layer 	data[26] 	510849
scalar barabasi_100nodes_network.node[26].core_layer 	slots_sent[face$o[1]->client[26]] 	139913203
scalar barabasi_100nodes_network.node[26].core_layer 	slots_sent[face$o[2]->node[2]] 	0
scalar barabasi_100nodes_network.node[26].core_layer 	slots_sent[face$o[3]->node[77]] 	194526703
scalar barabasi_100nodes_network.node[26].core_layer 	slots_sent[face$o[4]->node[91]] 	71770533
scalar barabasi_100nodes_network.node[26].content_store 	p_hit[26] 	0.14302180887715
scalar barabasi_100nodes_network.node[26].content_store 	hits[26] 	112292
scalar barabasi_100nodes_network.node[26].content_store 	misses[26] 	672847
scalar barabasi_100nodes_network.node[26].content_store 	decision_yes[26] 	282538
scalar barabasi_100nodes_network.node[26].content_store 	decision_no[26] 	228311
scalar barabasi_100nodes_network.node[26].content_store 	decision_ratio[26] 	0.55307537060854
scalar barabasi_100nodes_network.node[26].proactive_component 	hdistance[26].proactive_component 	4.1891464430256
scalar barabasi_100nodes_network.node[26].proactive_component 	downloads[26].proactive_component 	273772
scalar barabasi_100nodes_network.node[26].proactive_component 	avg_time[26].proactive_component 	0
scalar barabasi_100nodes_network.node[27].core_layer 	interests[27] 	449600
scalar barabasi_100nodes_network.node[27].core_layer 	data[27] 	283932
scalar barabasi_100nodes_network.node[27].core_layer 	slots_sent[face$o[1]->client[27]] 	139787873
scalar barabasi_100nodes_network.node[27].core_layer 	slots_sent[face$o[2]->node[4]] 	0
scalar barabasi_100nodes_network.node[27].core_layer 	slots_sent[face$o[3]->node[99]] 	100627763
scalar barabasi_100nodes_network.node[27].content_store 	p_hit[27] 	0.2325
scalar barabasi_100nodes_network.node[27].content_store 	hits[27] 	104532
scalar barabasi_100nodes_network.node[27].content_store 	misses[27] 	345068
scalar barabasi_100nodes_network.node[27].content_store 	decision_yes[27] 	156686
scalar barabasi_100nodes_network.node[27].content_store 	decision_no[27] 	127246
scalar barabasi_100nodes_network.node[27].content_store 	decision_ratio[27] 	0.55184339912373
scalar barabasi_100nodes_network.node[27].proactive_component 	hdistance[27].proactive_component 	4.2570383840498
scalar barabasi_100nodes_network.node[27].proactive_component 	downloads[27].proactive_component 	152876
scalar barabasi_100nodes_network.node[27].proactive_component 	avg_time[27].proactive_component 	0
scalar barabasi_100nodes_network.node[28].core_layer 	interests[28] 	243087
scalar barabasi_100nodes_network.node[28].core_layer 	data[28] 	143895
scalar barabasi_100nodes_network.node[28].core_layer 	slots_sent[face$o[1]->client[28]] 	143213077
scalar barabasi_100nodes_network.node[28].core_layer 	slots_sent[face$o[2]->node[0]] 	0
scalar barabasi_100nodes_network.node[28].content_store 	p_hit[28] 	0.40805143837392
scalar barabasi_100nodes_network.node[28].content_store 	hits[28] 	99192
scalar barabasi_100nodes_network.node[28].content_store 	misses[28] 	143895
scalar barabasi_100nodes_network.node[28].content_store 	decision_yes[28] 	81017
scalar barabasi_100nodes_network.node[28].content_store 	decision_no[28] 	62878
scalar barabasi_100nodes_network.node[28].content_store 	decision_ratio[28] 	0.56302859724104
scalar barabasi_100nodes_network.node[28].proactive_component 	hdistance[28].proactive_component 	4.6527377521614
scalar barabasi_100nodes_network.node[28].proactive_component 	downloads[28].proactive_component 	75646
scalar barabasi_100nodes_network.node[28].proactive_component 	avg_time[28].proactive_component 	0
scalar barabasi_100nodes_network.node[29].core_layer 	interests[29] 	242671
scalar barabasi_100nodes_network.node[29].core_layer 	data[29] 	143862
scalar barabasi_100nodes_network.node[29].core_layer 	slots_sent[face$o[1]->client[29]] 	141699965
scalar barabasi_100nodes_network.node[29].core_layer 	slots_sent[face$o[2]->node[2]] 	0
scalar barabasi_100nodes_network.node[29].content_store 	p_hit[29] 	0.40717267411434
scalar barabasi_100nodes_network.node[29].content_store 	hits[29] 	98809
scalar barabasi_100nodes_network.node[29].content_store 	misses[29] 	143862
scalar barabasi_100nodes_network.node[29].content_store 	decision_yes[29] 	80524
scalar barabasi_100nodes_network.node[29].content_store 	decision_no[29] 	63338
scalar barabasi_100nodes_network.node[29].content_store 	decision_ratio[29] 	0.55973085317874
scalar barabasi_100nodes_network.node[29].proactive_component 	hdistance[29].proactive_component 	4.1572408726566
scalar barabasi_100nodes_network.node[29].proactive_component 	downloads[29].proactive_component 	76227
scalar barabasi_100nodes_network.node[29].proactive_component 	avg_time[29].proactive_component 	0
scalar barabasi_100nodes_network.node[30].core_layer 	interests[30] 	423830
scalar barabasi_100nodes_network.node[30].core_layer 	repo_load[30] 	134639
scalar barabasi_100nodes_network.node[30].core_layer 	data[30] 	171022
scalar barabasi_100nodes_network.node[30].core_layer 	slots_sent[face$o[1]->client[30]] 	117774952
scalar barabasi_100nodes_network.node[30].core_layer 	slots_sent[face$o[2]->node[4]] 	0
scalar barabasi_100nodes_network.node[30].core_layer 	slots_sent[face$o[3]->node[88]] 	72121526
scalar barabasi_100nodes_network.node[30].content_store 	p_hit[30] 	0.20558006747989
scalar barabasi_100nodes_network.node[30].content_store 	hits[30] 	87131
scalar barabasi_100nodes_network.node[30].content_store 	misses[30] 	336699
scalar barabasi_100nodes_network.node[30].content_store 	decision_yes[30] 	92239
scalar barabasi_100nodes_network.node[30].content_store 	decision_no[30] 	213422
scalar barabasi_100nodes_network.node[30].content_store 	decision_ratio[30] 	0.3017689531867
scalar barabasi_100nodes_network.node[30].proactive_component 	hdistance[30].proactive_component 	2.5051344564893
scalar barabasi_100nodes_network.node[30].proactive_component 	downloads[30].proactive_component 	164477
scalar barabasi_100nodes_network.node[30].proactive_component 	avg_time[30].proactive_component 	0
scalar barabasi_100nodes_network.node[31].core_layer 	interests[31] 	824642
scalar barabasi_100nodes_network.node[31].core_layer 	data[31] 	541601
scalar barabasi_100nodes_network.node[31].core_layer 	slots_sent[face$o[1]->client[31]] 	141405702
scalar barabasi_100nodes_network.node[31].core_layer 	slots_sent[face$o[2]->node[7]] 	0
scalar barabasi_100nodes_network.node[31].core_layer 	slots_sent[face$o[3]->node[65]] 	284760236
scalar barabasi_100nodes_network.node[31].content_store 	p_hit[31] 	0.12950468203172
scalar barabasi_100nodes_network.node[31].content_store 	hits[31] 	106795
scalar barabasi_100nodes_network.node[31].content_store 	misses[31] 	717847
scalar barabasi_100nodes_network.node[31].content_store 	decision_yes[31] 	301587
scalar barabasi_100nodes_network.node[31].content_store 	decision_no[31] 	240014
scalar barabasi_100nodes_network.node[31].content_store 	decision_ratio[31] 	0.55684350656664
scalar barabasi_100nodes_network.node[31].proactive_component 	hdistance[31].proactive_component 	4.7273067889692
scalar barabasi_100nodes_network.node[31].proactive_component 	downloads[31].proactive_component 	288247
scalar barabasi_100nodes_network.node[31].proactive_component 	avg_time[31].proactive_component 	0
scalar barabasi_100nodes_network.node[32].core_layer 	interests[32] 	587761
scalar barabasi_100nodes_network.node[32].core_layer 	data[32] 	376257
scalar barabasi_100nodes_network.node[32].core_layer 	slots_sent[face$o[1]->client[32]] 	140991078
scalar barabasi_100nodes_network.node[32].core_layer 	slots_sent[face$o[2]->node[2]] 	0
scalar barabasi_100nodes_network.node[32].core_layer 	slots_sent[face$o[3]->node[43]] 	71591345
scalar barabasi_100nodes_network.node[32].core_layer 	slots_sent[face$o[4]->node[64]] 	100357194
scalar barabasi_100nodes_network.node[32].content_store 	p_hit[32] 	0.18660475941752
scalar barabasi_100nodes_network.node[32].content_store 	hits[32] 	109679
scalar barabasi_100nodes_network.node[32].content_store 	misses[32] 	478082
scalar barabasi_100nodes_network.node[32].content_store 	decision_yes[32] 	209302
scalar barabasi_100nodes_network.node[32].content_store 	decision_no[32] 	166955
scalar barabasi_100nodes_network.node[32].content_store 	decision_ratio[32] 	0.55627403609767
scalar barabasi_100nodes_network.node[32].proactive_component 	hdistance[32].proactive_component 	4.2819545504315
scalar barabasi_100nodes_network.node[32].proactive_component 	downloads[32].proactive_component 	200926
scalar barabasi_100nodes_network.node[32].proactive_component 	avg_time[32].proactive_component 	0
scalar barabasi_100nodes_network.node[33].core_layer 	interests[33] 	243637
scalar barabasi_100nodes_network.node[33].core_layer 	data[33] 	144865
scalar barabasi_100nodes_network.node[33].core_layer 	slots_sent[face$o[1]->client[33]] 	141804115
scalar barabasi_100nodes_network.node[33].core_layer 	slots_sent[face$o[2]->node[2]] 	0
scalar barabasi_100nodes_network.node[33].content_store 	p_hit[33] 	0.40540640378924
scalar barabasi_100nodes_network.node[33].content_store 	hits[33] 	98772
scalar barabasi_100nodes_network.node[33].content_store 	misses[33] 	144865
scalar barabasi_100nodes_network.node[33].content_store 	decision_yes[33] 	81069
scalar barabasi_100nodes_network.node[33].content_store 	decision_no[33] 	63796
scalar barabasi_100nodes_network.node[33].content_store 	decision_ratio[33] 	0.55961757498361
scalar barabasi_100nodes_network.node[33].proactive_component 	hdistance[33].proactive_component 	4.1668623920249
scalar barabasi_100nodes_network.node[33].proactive_component 	downloads[33].proactive_component 	76638
scalar barabasi_100nodes_network.node[33].proactive_component 	avg_time[33].proactive_component 	0
scalar barabasi_100nodes_network.node[34].core_layer 	interests[34] 	242373
scalar barabasi_100nodes_network.node[34].core_layer 	data[34] 	143777
scalar barabasi_100nodes_network.node[34].core_layer 	slots_sent[face$o[1]->client[34]] 	141622513
scalar barabasi_100nodes_network.node[34].core_layer 	slots_sent[face$o[2]->node[2]] 	0
scalar barabasi_100nodes_network.node[34].content_store 	p_hit[34] 	0.40679448618452
scalar barabasi_100nodes_network.node[34].content_store 	hits[34] 	98596
scalar barabasi_100nodes_network.node[34].content_store 	misses[34] 	143777
scalar barabasi_100nodes_network.node[34].content_store 	decision_yes[34] 	80560
scalar barabasi_100nodes_network.node[34].content_store 	decision_no[34] 	63217
scalar barabasi_100nodes_network.node[34].content_store 	decision_ratio[34] 	0.56031215006573
scalar barabasi_100nodes_network.node[34].proactive_component 	hdistance[34].proactive_component 	4.1630618918174
scalar barabasi_100nodes_network.node[34].proactive_component 	downloads[34].proactive_component 	76149
scalar barabasi_100nodes_network.node[34].proactive_component 	avg_time[34].proactive_component 	0
scalar barabasi_100nodes_network.node[35].core_layer 	interests[35] 	437414
scalar barabasi_100nodes_network.node[35].core_layer 	data[35] 	275376
scalar barabasi_100nodes_network.node[35].core_layer 	slots_sent[face$o[1]->client[35]] 	145622437
scalar barabasi_100nodes_network.node[35].core_layer 	slots_sent[face$o[2]->node[5]] 	0
scalar barabasi_100nodes_network.node[35].core_layer 	slots_sent[face$o[3]->node[50]] 	100939515
scalar barabasi_100nodes_network.node[35].content_store 	p_hit[35] 	0.23838514542287
scalar barabasi_100nodes_network.node[35].content_store 	hits[35] 	104273
scalar barabasi_100nodes_network.node[35].content_store 	misses[35] 	333141
scalar barabasi_100nodes_network.node[35].content_store 	decision_yes[35] 	157247
scalar barabasi_100nodes_network.node[35].content_store 	decision_no[35] 	118129
scalar barabasi_100nodes_network.node[35].content_store 	decision_ratio[35] 	0.57102652373482
scalar barabasi_100nodes_network.node[35].proactive_component 	hdistance[35].proactive_component 	5.663103715716
scalar barabasi_100nodes_network.node[35].proactive_component 	downloads[35].proactive_component 	141830
scalar barabasi_100nodes_network.node[35].proactive_component 	avg_time[35].proactive_component 	0
scalar barabasi_100nodes_network.node[36].core_layer 	interests[36] 	445281
scalar barabasi_100nodes_network.node[36].core_layer 	data[36] 	280659
scalar barabasi_100nodes_network.node[36].core_layer 	slots_sent[face$o[1]->client[36]] 	141372469
scalar barabasi_100nodes_network.node[36].core_layer 	slots_sent[face$o[2]->node[2]] 	0
scalar barabasi_100nodes_network.node[36].core_layer 	slots_sent[face$o[3]->node[75]] 	100490430
scalar barabasi_100nodes_network.node[36].content_store 	p_hit[36] 	0.23551644916356
scalar barabasi_100nodes_network.node[36].content_store 	hits[36] 	104871
scalar barabasi_100nodes_network.node[36].content_store 	misses[36] 	340410
scalar barabasi_100nodes_network.node[36].content_store 	decision_yes[36] 	156317
scalar barabasi_100nodes_network.node[36].content_store 	decision_no[36] 	124342
[...]
scalar barabasi_100nodes_network.client[8] 	avg_time[8].real 	0
scalar barabasi_100nodes_network.client[9] 	hdistance[9].real 	2.1241702568791
scalar barabasi_100nodes_network.client[9] 	downloads[9].real 	179423
scalar barabasi_100nodes_network.client[9] 	avg_time[9].real 	0
scalar barabasi_100nodes_network.client[10] 	hdistance[10].real 	1.8604699012929
scalar barabasi_100nodes_network.client[10] 	downloads[10].real 	179825
scalar barabasi_100nodes_network.client[10] 	avg_time[10].real 	0
scalar barabasi_100nodes_network.client[11] 	hdistance[11].real 	1.8018888913609
scalar barabasi_100nodes_network.client[11] 	downloads[11].real 	179788
scalar barabasi_100nodes_network.client[11] 	avg_time[11].real 	0
scalar barabasi_100nodes_network.client[12] 	hdistance[12].real 	1.7620310324359
scalar barabasi_100nodes_network.client[12] 	downloads[12].real 	180263
scalar barabasi_100nodes_network.client[12] 	avg_time[12].real 	0
scalar barabasi_100nodes_network.client[13] 	hdistance[13].real 	1.7331846135962
scalar barabasi_100nodes_network.client[13] 	downloads[13].real 	180653
scalar barabasi_100nodes_network.client[13] 	avg_time[13].real 	0
scalar barabasi_100nodes_network.client[14] 	hdistance[14].real 	1.9454599073008
scalar barabasi_100nodes_network.client[14] 	downloads[14].real 	179721
scalar barabasi_100nodes_network.client[14] 	avg_time[14].real 	0
scalar barabasi_100nodes_network.client[15] 	hdistance[15].real 	1.8945937716263
scalar barabasi_100nodes_network.client[15] 	downloads[15].real 	180625
scalar barabasi_100nodes_network.client[15] 	avg_time[15].real 	0
scalar barabasi_100nodes_network.client[16] 	hdistance[16].real 	1.6086644726601
scalar barabasi_100nodes_network.client[16] 	downloads[16].real 	179884
scalar barabasi_100nodes_network.client[16] 	avg_time[16].real 	0
scalar barabasi_100nodes_network.client[17] 	hdistance[17].real 	1.9561047932122
scalar barabasi_100nodes_network.client[17] 	downloads[17].real 	180088
scalar barabasi_100nodes_network.client[17] 	avg_time[17].real 	0
scalar barabasi_100nodes_network.client[18] 	hdistance[18].real 	1.7149843559834
scalar barabasi_100nodes_network.client[18] 	downloads[18].real 	179941
scalar barabasi_100nodes_network.client[18] 	avg_time[18].real 	0
scalar barabasi_100nodes_network.client[19] 	hdistance[19].real 	1.9105545018409
scalar barabasi_100nodes_network.client[19] 	downloads[19].real 	179260
scalar barabasi_100nodes_network.client[19] 	avg_time[19].real 	0
scalar barabasi_100nodes_network.client[20] 	hdistance[20].real 	1.7422842932635
scalar barabasi_100nodes_network.client[20] 	downloads[20].real 	180152
scalar barabasi_100nodes_network.client[20] 	avg_time[20].real 	0
scalar barabasi_100nodes_network.client[21] 	hdistance[21].real 	1.8819593800581
scalar barabasi_100nodes_network.client[21] 	downloads[21].real 	180404
scalar barabasi_100nodes_network.client[21] 	avg_time[21].real 	0
scalar barabasi_100nodes_network.client[22] 	hdistance[22].real 	1.81986834564
scalar barabasi_100nodes_network.client[22] 	downloads[22].real 	179713
scalar barabasi_100nodes_network.client[22] 	avg_time[22].real 	0
scalar barabasi_100nodes_network.client[23] 	hdistance[23].real 	2.0312790199796
scalar barabasi_100nodes_network.client[23] 	downloads[23].real 	179833
scalar barabasi_100nodes_network.client[23] 	avg_time[23].real 	0
scalar barabasi_100nodes_network.client[24] 	hdistance[24].real 	2.1106399383192
scalar barabasi_100nodes_network.client[24] 	downloads[24].real 	178986
scalar barabasi_100nodes_network.client[24] 	avg_time[24].real 	0
scalar barabasi_100nodes_network.client[25] 	hdistance[25].real 	1.6644810143507
scalar barabasi_100nodes_network.client[25] 	downloads[25].real 	179504
scalar barabasi_100nodes_network.client[25] 	avg_time[25].real 	0
scalar barabasi_100nodes_network.client[26] 	hdistance[26].real 	1.7203387952715
scalar barabasi_100nodes_network.client[26] 	downloads[26].real 	180522
scalar barabasi_100nodes_network.client[26] 	avg_time[26].real 	0
scalar barabasi_100nodes_network.client[27] 	hdistance[27].real 	1.7410405650589
scalar barabasi_100nodes_network.client[27] 	downloads[27].real 	180229
scalar barabasi_100nodes_network.client[27] 	avg_time[27].real 	0
scalar barabasi_100nodes_network.client[28] 	hdistance[28].real 	1.815985883058
scalar barabasi_100nodes_network.client[28] 	downloads[28].real 	180209
scalar barabasi_100nodes_network.client[28] 	avg_time[28].real 	0
scalar barabasi_100nodes_network.client[29] 	hdistance[29].real 	1.6232149130389
scalar barabasi_100nodes_network.client[29] 	downloads[29].real 	179333
scalar barabasi_100nodes_network.client[29] 	avg_time[29].real 	0
scalar barabasi_100nodes_network.client[30] 	hdistance[30].real 	1.404524614639
scalar barabasi_100nodes_network.client[30] 	downloads[30].real 	179507
scalar barabasi_100nodes_network.client[30] 	avg_time[30].real 	0
scalar barabasi_100nodes_network.client[31] 	hdistance[31].real 	1.907557640661
scalar barabasi_100nodes_network.client[31] 	downloads[31].real 	179474
scalar barabasi_100nodes_network.client[31] 	avg_time[31].real 	0
scalar barabasi_100nodes_network.client[32] 	hdistance[32].real 	1.6801689915948
scalar barabasi_100nodes_network.client[32] 	downloads[32].real 	180364
scalar barabasi_100nodes_network.client[32] 	avg_time[32].real 	0
scalar barabasi_100nodes_network.client[33] 	hdistance[33].real 	1.6326755300515
scalar barabasi_100nodes_network.client[33] 	downloads[33].real 	179841
scalar barabasi_100nodes_network.client[33] 	avg_time[33].real 	0
scalar barabasi_100nodes_network.client[34] 	hdistance[34].real 	1.6241990220813
scalar barabasi_100nodes_network.client[34] 	downloads[34].real 	179156
scalar barabasi_100nodes_network.client[34] 	avg_time[34].real 	0
scalar barabasi_100nodes_network.client[35] 	hdistance[35].real 	2.1860536185581
scalar barabasi_100nodes_network.client[35] 	downloads[35].real 	179975
scalar barabasi_100nodes_network.client[35] 	avg_time[35].real 	0
scalar barabasi_100nodes_network.client[36] 	hdistance[36].real 	1.6639640839521
scalar barabasi_100nodes_network.client[36] 	downloads[36].real 	180198
scalar barabasi_100nodes_network.client[36] 	avg_time[36].real 	0
scalar barabasi_100nodes_network.client[37] 	hdistance[37].real 	1.8063237161536
scalar barabasi_100nodes_network.client[37] 	downloads[37].real 	180337
scalar barabasi_100nodes_network.client[37] 	avg_time[37].real 	0
scalar barabasi_100nodes_network.client[38] 	hdistance[38].real 	1.9523925998399
scalar barabasi_100nodes_network.client[38] 	downloads[38].real 	179888
scalar barabasi_100nodes_network.client[38] 	avg_time[38].real 	0
scalar barabasi_100nodes_network.client[39] 	hdistance[39].real 	1.9814627644805
scalar barabasi_100nodes_network.client[39] 	downloads[39].real 	180070
scalar barabasi_100nodes_network.client[39] 	avg_time[39].real 	0
scalar barabasi_100nodes_network.client[40] 	hdistance[40].real 	2.1134453781513
scalar barabasi_100nodes_network.client[40] 	downloads[40].real 	180166
scalar barabasi_100nodes_network.client[40] 	avg_time[40].real 	0
scalar barabasi_100nodes_network.client[41] 	hdistance[41].real 	1.7765045685561
scalar barabasi_100nodes_network.client[41] 	downloads[41].real 	180035
scalar barabasi_100nodes_network.client[41] 	avg_time[41].real 	0
scalar barabasi_100nodes_network.client[42] 	hdistance[42].real 	1.8380899500278
scalar barabasi_100nodes_network.client[42] 	downloads[42].real 	180100
scalar barabasi_100nodes_network.client[42] 	avg_time[42].real 	0
scalar barabasi_100nodes_network.client[43] 	hdistance[43].real 	1.7695031721275
scalar barabasi_100nodes_network.client[43] 	downloads[43].real 	180163
scalar barabasi_100nodes_network.client[43] 	avg_time[43].real 	0
scalar barabasi_100nodes_network.client[44] 	hdistance[44].real 	1.8160651340147
scalar barabasi_100nodes_network.client[44] 	downloads[44].real 	180428
scalar barabasi_100nodes_network.client[44] 	avg_time[44].real 	0
scalar barabasi_100nodes_network.client[45] 	hdistance[45].real 	1.5511876695877
scalar barabasi_100nodes_network.client[45] 	downloads[45].real 	179848
scalar barabasi_100nodes_network.client[45] 	avg_time[45].real 	0
scalar barabasi_100nodes_network.client[46] 	hdistance[46].real 	2.3736036086206
scalar barabasi_100nodes_network.client[46] 	downloads[46].real 	179570
scalar barabasi_100nodes_network.client[46] 	avg_time[46].real 	0
scalar barabasi_100nodes_network.client[47] 	hdistance[47].real 	2.0516590182172
scalar barabasi_100nodes_network.client[47] 	downloads[47].real 	179775
scalar barabasi_100nodes_network.client[47] 	avg_time[47].real 	0
scalar barabasi_100nodes_network.client[48] 	hdistance[48].real 	1.6876165393149
scalar barabasi_100nodes_network.client[48] 	downloads[48].real 	180733
scalar barabasi_100nodes_network.client[48] 	avg_time[48].real 	0
scalar barabasi_100nodes_network.client[49] 	hdistance[49].real 	1.4830442187249
scalar barabasi_100nodes_network.client[49] 	downloads[49].real 	180263
scalar barabasi_100nodes_network.client[49] 	avg_time[49].real 	0
scalar barabasi_100nodes_network.client[50] 	hdistance[50].real 	2.4652362080688
scalar barabasi_100nodes_network.client[50] 	downloads[50].real 	180921
scalar barabasi_100nodes_network.client[50] 	avg_time[50].real 	0
scalar barabasi_100nodes_network.client[51] 	hdistance[51].real 	2.0606423564902
scalar barabasi_100nodes_network.client[51] 	downloads[51].real 	180336
scalar barabasi_100nodes_network.client[51] 	avg_time[51].real 	0
scalar barabasi_100nodes_network.client[52] 	hdistance[52].real 	1.9574153037708
scalar barabasi_100nodes_network.client[52] 	downloads[52].real 	179642
scalar barabasi_100nodes_network.client[52] 	avg_time[52].real 	0
scalar barabasi_100nodes_network.client[53] 	hdistance[53].real 	1.9505549219771
scalar barabasi_100nodes_network.client[53] 	downloads[53].real 	179755
scalar barabasi_100nodes_network.client[53] 	avg_time[53].real 	0
scalar barabasi_100nodes_network.client[54] 	hdistance[54].real 	1.8885557554356
scalar barabasi_100nodes_network.client[54] 	downloads[54].real 	180108
scalar barabasi_100nodes_network.client[54] 	avg_time[54].real 	0
scalar barabasi_100nodes_network.client[55] 	hdistance[55].real 	1.8475441408946
scalar barabasi_100nodes_network.client[55] 	downloads[55].real 	179652
scalar barabasi_100nodes_network.client[55] 	avg_time[55].real 	0
scalar barabasi_100nodes_network.client[56] 	hdistance[56].real 	2.1178453433342
scalar barabasi_100nodes_network.client[56] 	downloads[56].real 	179184
scalar barabasi_100nodes_network.client[56] 	avg_time[56].real 	0
scalar barabasi_100nodes_network.client[57] 	hdistance[57].real 	2.12753860006
scalar barabasi_100nodes_network.client[57] 	downloads[57].real 	179922
scalar barabasi_100nodes_network.client[57] 	avg_time[57].real 	0
scalar barabasi_100nodes_network.client[58] 	hdistance[58].real 	1.8568969263425
scalar barabasi_100nodes_network.client[58] 	downloads[58].real 	179493
scalar barabasi_100nodes_network.client[58] 	avg_time[58].real 	0
scalar barabasi_100nodes_network.client[59] 	hdistance[59].real 	1.6320042448294
scalar barabasi_100nodes_network.client[59] 	downloads[59].real 	180926
scalar barabasi_100nodes_network.client[59] 	avg_time[59].real 	0
scalar barabasi_100nodes_network.client[60] 	hdistance[60].real 	1.837066584842
scalar barabasi_100nodes_network.client[60] 	downloads[60].real 	179245
scalar barabasi_100nodes_network.client[60] 	avg_time[60].real 	0
scalar barabasi_100nodes_network.client[61] 	hdistance[61].real 	1.9529983251445
scalar barabasi_100nodes_network.client[61] 	downloads[61].real 	179717
scalar barabasi_100nodes_network.client[61] 	avg_time[61].real 	0
scalar barabasi_100nodes_network.client[62] 	hdistance[62].real 	1.6956514510864
scalar barabasi_100nodes_network.client[62] 	downloads[62].real 	180451
scalar barabasi_100nodes_network.client[62] 	avg_time[62].real 	0
scalar barabasi_100nodes_network.client[63] 	hdistance[63].real 	2.1253672652141
scalar barabasi_100nodes_network.client[63] 	downloads[63].real 	180047
scalar barabasi_100nodes_network.client[63] 	avg_time[63].real 	0
scalar barabasi_100nodes_network.client[64] 	hdistance[64].real 	1.9519698328441
scalar barabasi_100nodes_network.client[64] 	downloads[64].real 	179533
scalar barabasi_100nodes_network.client[64] 	avg_time[64].real 	0
scalar barabasi_100nodes_network.client[65] 	hdistance[65].real 	2.2618915221816
scalar barabasi_100nodes_network.client[65] 	downloads[65].real 	179834
scalar barabasi_100nodes_network.client[65] 	avg_time[65].real 	0
scalar barabasi_100nodes_network.client[66] 	hdistance[66].real 	1.9543188585814
scalar barabasi_100nodes_network.client[66] 	downloads[66].real 	180337
scalar barabasi_100nodes_network.client[66] 	avg_time[66].real 	0
scalar barabasi_100nodes_network.client[67] 	hdistance[67].real 	1.9344832003208
scalar barabasi_100nodes_network.client[67] 	downloads[67].real 	179557
scalar barabasi_100nodes_network.client[67] 	avg_time[67].real 	0
scalar barabasi_100nodes_network.client[68] 	hdistance[68].real 	1.590911864388
scalar barabasi_100nodes_network.client[68] 	downloads[68].real 	180279
scalar barabasi_100nodes_network.client[68] 	avg_time[68].real 	0
scalar barabasi_100nodes_network.client[69] 	hdistance[69].real 	1.8409363345765
scalar barabasi_100nodes_network.client[69] 	downloads[69].real 	180192
scalar barabasi_100nodes_network.client[69] 	avg_time[69].real 	0
scalar barabasi_100nodes_network.client[70] 	hdistance[70].real 	2.1146063414878
scalar barabasi_100nodes_network.client[70] 	downloads[70].real 	179737
scalar barabasi_100nodes_network.client[70] 	avg_time[70].real 	0
scalar barabasi_100nodes_network.client[71] 	hdistance[71].real 	2.1343581996712
scalar barabasi_100nodes_network.client[71] 	downloads[71].real 	180056
scalar barabasi_100nodes_network.client[71] 	avg_time[71].real 	0
scalar barabasi_100nodes_network.client[72] 	hdistance[72].real 	1.9407721604726
scalar barabasi_100nodes_network.client[72] 	downloads[72].real 	180118
scalar barabasi_100nodes_network.client[72] 	avg_time[72].real 	0
scalar barabasi_100nodes_network.client[73] 	hdistance[73].real 	1.8646042028405
scalar barabasi_100nodes_network.client[73] 	downloads[73].real 	179688
scalar barabasi_100nodes_network.client[73] 	avg_time[73].real 	0
scalar barabasi_100nodes_network.client[74] 	hdistance[74].real 	1.6752901731013
scalar barabasi_100nodes_network.client[74] 	downloads[74].real 	179548
scalar barabasi_100nodes_network.client[74] 	avg_time[74].real 	0
scalar barabasi_100nodes_network.client[75] 	hdistance[75].real 	1.94598026874
scalar barabasi_100nodes_network.client[75] 	downloads[75].real 	180323
scalar barabasi_100nodes_network.client[75] 	avg_time[75].real 	0
scalar barabasi_100nodes_network.client[76] 	hdistance[76].real 	2.1291504503503
scalar barabasi_100nodes_network.client[76] 	downloads[76].real 	179860
scalar barabasi_100nodes_network.client[76] 	avg_time[76].real 	0
scalar barabasi_100nodes_network.client[77] 	hdistance[77].real 	2.0100936033108
scalar barabasi_100nodes_network.client[77] 	downloads[77].real 	180015
scalar barabasi_100nodes_network.client[77] 	avg_time[77].real 	0
scalar barabasi_100nodes_network.client[78] 	hdistance[78].real 	2.0463055722523
scalar barabasi_100nodes_network.client[78] 	downloads[78].real 	179676
scalar barabasi_100nodes_network.client[78] 	avg_time[78].real 	0
scalar barabasi_100nodes_network.client[79] 	hdistance[79].real 	1.6325795621653
scalar barabasi_100nodes_network.client[79] 	downloads[79].real 	180205
scalar barabasi_100nodes_network.client[79] 	avg_time[79].real 	0
scalar barabasi_100nodes_network.client[80] 	hdistance[80].real 	2.1049546289595
scalar barabasi_100nodes_network.client[80] 	downloads[80].real 	179630
scalar barabasi_100nodes_network.client[80] 	avg_time[80].real 	0
scalar barabasi_100nodes_network.client[81] 	hdistance[81].real 	2.2703346625052
scalar barabasi_100nodes_network.client[81] 	downloads[81].real 	180062
scalar barabasi_100nodes_network.client[81] 	avg_time[81].real 	0
scalar barabasi_100nodes_network.client[82] 	hdistance[82].real 	2.2540263461881
scalar barabasi_100nodes_network.client[82] 	downloads[82].real 	180064
scalar barabasi_100nodes_network.client[82] 	avg_time[82].real 	0
scalar barabasi_100nodes_network.client[83] 	hdistance[83].real 	2.0540657439446
scalar barabasi_100nodes_network.client[83] 	downloads[83].real 	180336
scalar barabasi_100nodes_network.client[83] 	avg_time[83].real 	0
scalar barabasi_100nodes_network.client[84] 	hdistance[84].real 	2.0269766665739
scalar barabasi_100nodes_network.client[84] 	downloads[84].real 	179785
scalar barabasi_100nodes_network.client[84] 	avg_time[84].real 	0
scalar barabasi_100nodes_network.client[85] 	hdistance[85].real 	1.6023667388075
scalar barabasi_100nodes_network.client[85] 	downloads[85].real 	179741
scalar barabasi_100nodes_network.client[85] 	avg_time[85].real 	0
scalar barabasi_100nodes_network.client[86] 	hdistance[86].real 	2.0301371236341
scalar barabasi_100nodes_network.client[86] 	downloads[86].real 	179546
scalar barabasi_100nodes_network.client[86] 	avg_time[86].real 	0
scalar barabasi_100nodes_network.client[87] 	hdistance[87].real 	2.2667768851804
scalar barabasi_100nodes_network.client[87] 	downloads[87].real 	180248
scalar barabasi_100nodes_network.client[87] 	avg_time[87].real 	0
scalar barabasi_100nodes_network.client[88] 	hdistance[88].real 	1.2673836723321
scalar barabasi_100nodes_network.client[88] 	downloads[88].real 	179450
scalar barabasi_100nodes_network.client[88] 	avg_time[88].real 	0
scalar barabasi_100nodes_network.client[89] 	hdistance[89].real 	2.1180983818626
scalar barabasi_100nodes_network.client[89] 	downloads[89].real 	179342
scalar barabasi_100nodes_network.client[89] 	avg_time[89].real 	0
scalar barabasi_100nodes_network.client[90] 	hdistance[90].real 	1.4945626922141
scalar barabasi_100nodes_network.client[90] 	downloads[90].real 	180788
scalar barabasi_100nodes_network.client[90] 	avg_time[90].real 	0
scalar barabasi_100nodes_network.client[91] 	hdistance[91].real 	1.6322619252101
scalar barabasi_100nodes_network.client[91] 	downloads[91].real 	180479
scalar barabasi_100nodes_network.client[91] 	avg_time[91].real 	0
scalar barabasi_100nodes_network.client[92] 	hdistance[92].real 	2.3005355087333
scalar barabasi_100nodes_network.client[92] 	downloads[92].real 	179829
scalar barabasi_100nodes_network.client[92] 	avg_time[92].real 	0
scalar barabasi_100nodes_network.client[93] 	hdistance[93].real 	1.8057877385194
scalar barabasi_100nodes_network.client[93] 	downloads[93].real 	180174
scalar barabasi_100nodes_network.client[93] 	avg_time[93].real 	0
scalar barabasi_100nodes_network.client[94] 	hdistance[94].real 	2.1359974146673
scalar barabasi_100nodes_network.client[94] 	downloads[94].real 	179474
scalar barabasi_100nodes_network.client[94] 	avg_time[94].real 	0
scalar barabasi_100nodes_network.client[95] 	hdistance[95].real 	2.4693526457449
scalar barabasi_100nodes_network.client[95] 	downloads[95].real 	180195
scalar barabasi_100nodes_network.client[95] 	avg_time[95].real 	0
scalar barabasi_100nodes_network.client[96] 	hdistance[96].real 	2.2911287496594
scalar barabasi_100nodes_network.client[96] 	downloads[96].real 	179783
scalar barabasi_100nodes_network.client[96] 	avg_time[96].real 	0
scalar barabasi_100nodes_network.client[97] 	hdistance[97].real 	2.1400605493721
scalar barabasi_100nodes_network.client[97] 	downloads[97].real 	180679
scalar barabasi_100nodes_network.client[97] 	avg_time[97].real 	0
scalar barabasi_100nodes_network.client[98] 	hdistance[98].real 	2.4708730822873
scalar barabasi_100nodes_network.client[98] 	downloads[98].real 	179250
scalar barabasi_100nodes_network.client[98] 	avg_time[98].real 	0
scalar barabasi_100nodes_network.client[99] 	hdistance[99].real 	2.0337904668764
scalar barabasi_100nodes_network.client[99] 	downloads[99].real 	179962
scalar barabasi_100nodes_network.client[99] 	avg_time[99].real 	0
