version 2
run General-1-20150722-13:23:51-32205
attr C 1e4
attr D lce
attr F spr
attr R always_highq
attr a 1
attr brates 0.3_0.7_1.5_2.5_3.5
attr configname General
attr ctlg 1e6
attr datetime 20150722-13:23:51
attr experiment General
attr inifile omnetpp.ini
attr iterationvars "$net=barabasi_100nodes, $rep=1, $lambda=100, $a=1, $ctlg=1e6, $brates=0.3_0.7_1.5_2.5_3.5, $F=spr, $ttl=1000, $D=lce, $R=always_highq, $C=1e4, $window=60, $variance=0.05, $mytime=1800"
attr iterationvars2 "$net=barabasi_100nodes, $rep=1, $lambda=100, $a=1, $ctlg=1e6, $brates=0.3_0.7_1.5_2.5_3.5, $F=spr, $ttl=1000, $D=lce, $R=always_highq, $C=1e4, $window=60, $variance=0.05, $mytime=1800, $repetition=0"
attr lambda 100
attr measurement "$net=barabasi_100nodes, $rep=1, $lambda=100, $a=1, $ctlg=1e6, $brates=0.3_0.7_1.5_2.5_3.5, $F=spr, $ttl=1000, $D=lce, $R=always_highq, $C=1e4, $window=60, $variance=0.05, $mytime=1800"
attr mytime 1800
attr net barabasi_100nodes
attr network networks.${net=barabasi_100nodes}_network
attr processid 32205
attr rep 1
attr repetition 0
attr replication #0
attr resultdir results
attr runnumber 1
attr seedset 1
attr ttl 1000
attr variance 0.05
attr window 60

scalar . 	C 	1e4
scalar . 	a 	1
scalar . 	ctlg 	1e6
scalar . 	lambda 	100
scalar . 	mytime 	1800
scalar . 	rep 	1
scalar . 	ttl 	1000
scalar . 	variance 	0.05
scalar . 	window 	60
scalar barabasi_100nodes_network.content_distribution 	repo-0 	46
scalar barabasi_100nodes_network.content_distribution 	repo-1 	55
scalar barabasi_100nodes_network.content_distribution 	repo-2 	69
scalar barabasi_100nodes_network.content_distribution 	repo-3 	1
scalar barabasi_100nodes_network.content_distribution 	repo-4 	87
scalar barabasi_100nodes_network.content_distribution 	repo-5 	72
scalar barabasi_100nodes_network.content_distribution 	repo-6 	50
scalar barabasi_100nodes_network.content_distribution 	repo-7 	9
scalar barabasi_100nodes_network.content_distribution 	repo-8 	58
scalar barabasi_100nodes_network.content_distribution 	repo-9 	94
scalar barabasi_100nodes_network.content_distribution 	repo-10 	57
scalar barabasi_100nodes_network.content_distribution 	repo-11 	36
scalar barabasi_100nodes_network.content_distribution 	repo-12 	44
scalar barabasi_100nodes_network.content_distribution 	repo-13 	38
scalar barabasi_100nodes_network.content_distribution 	repo-14 	52
scalar barabasi_100nodes_network.content_distribution 	repo-15 	3
scalar barabasi_100nodes_network.content_distribution 	repo-16 	0
scalar barabasi_100nodes_network.content_distribution 	repo-17 	21
scalar barabasi_100nodes_network.content_distribution 	repo-18 	73
scalar barabasi_100nodes_network.content_distribution 	repo-19 	56
scalar barabasi_100nodes_network.content_distribution 	repo-20 	66
scalar barabasi_100nodes_network.content_distribution 	repo-21 	30
scalar barabasi_100nodes_network.content_distribution 	repo-22 	8
scalar barabasi_100nodes_network.content_distribution 	repo-23 	49
scalar barabasi_100nodes_network.content_distribution 	repo-24 	32
scalar barabasi_100nodes_network.content_distribution 	repo-25 	40
scalar barabasi_100nodes_network.content_distribution 	repo-26 	42
scalar barabasi_100nodes_network.content_distribution 	repo-27 	45
scalar barabasi_100nodes_network.content_distribution 	repo-28 	33
scalar barabasi_100nodes_network.content_distribution 	repo-29 	28
scalar barabasi_100nodes_network.content_distribution 	repo-30 	79
scalar barabasi_100nodes_network.content_distribution 	repo-31 	98
scalar barabasi_100nodes_network.content_distribution 	repo-32 	95
scalar barabasi_100nodes_network.content_distribution 	repo-33 	17
scalar barabasi_100nodes_network.content_distribution 	repo-34 	81
scalar barabasi_100nodes_network.content_distribution 	repo-35 	89
scalar barabasi_100nodes_network.content_distribution 	repo-36 	59
scalar barabasi_100nodes_network.content_distribution 	repo-37 	48
scalar barabasi_100nodes_network.content_distribution 	repo-38 	76
scalar barabasi_100nodes_network.content_distribution 	repo-39 	23
scalar barabasi_100nodes_network.content_distribution 	repo-40 	22
scalar barabasi_100nodes_network.content_distribution 	repo-41 	67
scalar barabasi_100nodes_network.content_distribution 	repo-42 	62
scalar barabasi_100nodes_network.content_distribution 	repo-43 	75
scalar barabasi_100nodes_network.content_distribution 	repo-44 	70
scalar barabasi_100nodes_network.content_distribution 	repo-45 	71
scalar barabasi_100nodes_network.content_distribution 	repo-46 	82
scalar barabasi_100nodes_network.content_distribution 	repo-47 	53
scalar barabasi_100nodes_network.content_distribution 	repo-48 	85
scalar barabasi_100nodes_network.content_distribution 	repo-49 	91
scalar barabasi_100nodes_network.content_distribution 	repo-50 	51
scalar barabasi_100nodes_network.content_distribution 	repo-51 	37
scalar barabasi_100nodes_network.content_distribution 	repo-52 	54
scalar barabasi_100nodes_network.content_distribution 	repo-53 	96
scalar barabasi_100nodes_network.content_distribution 	repo-54 	4
scalar barabasi_100nodes_network.content_distribution 	repo-55 	31
scalar barabasi_100nodes_network.content_distribution 	repo-56 	78
scalar barabasi_100nodes_network.content_distribution 	repo-57 	68
scalar barabasi_100nodes_network.content_distribution 	repo-58 	39
scalar barabasi_100nodes_network.content_distribution 	repo-59 	27
scalar barabasi_100nodes_network.content_distribution 	repo-60 	97
scalar barabasi_100nodes_network.content_distribution 	repo-61 	60
scalar barabasi_100nodes_network.content_distribution 	repo-62 	43
scalar barabasi_100nodes_network.content_distribution 	repo-63 	86
scalar barabasi_100nodes_network.content_distribution 	repo-64 	15
scalar barabasi_100nodes_network.content_distribution 	repo-65 	13
scalar barabasi_100nodes_network.content_distribution 	repo-66 	10
scalar barabasi_100nodes_network.content_distribution 	repo-67 	7
scalar barabasi_100nodes_network.content_distribution 	repo-68 	63
scalar barabasi_100nodes_network.content_distribution 	repo-69 	64
scalar barabasi_100nodes_network.content_distribution 	repo-70 	35
scalar barabasi_100nodes_network.content_distribution 	repo-71 	65
scalar barabasi_100nodes_network.content_distribution 	repo-72 	74
scalar barabasi_100nodes_network.content_distribution 	repo-73 	20
scalar barabasi_100nodes_network.content_distribution 	repo-74 	80
scalar barabasi_100nodes_network.content_distribution 	repo-75 	41
scalar barabasi_100nodes_network.content_distribution 	repo-76 	25
scalar barabasi_100nodes_network.content_distribution 	repo-77 	5
scalar barabasi_100nodes_network.content_distribution 	repo-78 	24
scalar barabasi_100nodes_network.content_distribution 	repo-79 	29
scalar barabasi_100nodes_network.content_distribution 	repo-80 	93
scalar barabasi_100nodes_network.content_distribution 	repo-81 	61
scalar barabasi_100nodes_network.content_distribution 	repo-82 	2
scalar barabasi_100nodes_network.content_distribution 	repo-83 	19
scalar barabasi_100nodes_network.content_distribution 	repo-84 	99
scalar barabasi_100nodes_network.content_distribution 	repo-85 	16
scalar barabasi_100nodes_network.content_distribution 	repo-86 	90
scalar barabasi_100nodes_network.content_distribution 	repo-87 	77
scalar barabasi_100nodes_network.content_distribution 	repo-88 	12
scalar barabasi_100nodes_network.content_distribution 	repo-89 	26
scalar barabasi_100nodes_network.content_distribution 	repo-90 	34
scalar barabasi_100nodes_network.content_distribution 	repo-91 	88
scalar barabasi_100nodes_network.content_distribution 	repo-92 	18
scalar barabasi_100nodes_network.content_distribution 	repo-93 	83
scalar barabasi_100nodes_network.content_distribution 	repo-94 	84
scalar barabasi_100nodes_network.content_distribution 	repo-95 	92
scalar barabasi_100nodes_network.content_distribution 	repo-96 	14
scalar barabasi_100nodes_network.content_distribution 	repo-97 	6
scalar barabasi_100nodes_network.content_distribution 	repo-98 	47
scalar barabasi_100nodes_network.content_distribution 	repo-99 	11
scalar barabasi_100nodes_network.content_distribution 	client-0 	3
scalar barabasi_100nodes_network.content_distribution 	client-1 	71
scalar barabasi_100nodes_network.content_distribution 	client-2 	78
scalar barabasi_100nodes_network.content_distribution 	client-3 	12
scalar barabasi_100nodes_network.content_distribution 	client-4 	7
scalar barabasi_100nodes_network.content_distribution 	client-5 	81
scalar barabasi_100nodes_network.content_distribution 	client-6 	86
scalar barabasi_100nodes_network.content_distribution 	client-7 	80
scalar barabasi_100nodes_network.content_distribution 	client-8 	79
scalar barabasi_100nodes_network.content_distribution 	client-9 	64
scalar barabasi_100nodes_network.content_distribution 	client-10 	10
scalar barabasi_100nodes_network.content_distribution 	client-11 	31
scalar barabasi_100nodes_network.content_distribution 	client-12 	45
scalar barabasi_100nodes_network.content_distribution 	client-13 	39
scalar barabasi_100nodes_network.content_distribution 	client-14 	84
scalar barabasi_100nodes_network.content_distribution 	client-15 	95
scalar barabasi_100nodes_network.content_distribution 	client-16 	48
scalar barabasi_100nodes_network.content_distribution 	client-17 	29
scalar barabasi_100nodes_network.content_distribution 	client-18 	43
scalar barabasi_100nodes_network.content_distribution 	client-19 	0
scalar barabasi_100nodes_network.content_distribution 	client-20 	8
scalar barabasi_100nodes_network.content_distribution 	client-21 	57
scalar barabasi_100nodes_network.content_distribution 	client-22 	38
scalar barabasi_100nodes_network.content_distribution 	client-23 	90
scalar barabasi_100nodes_network.content_distribution 	client-24 	54
scalar barabasi_100nodes_network.content_distribution 	client-25 	24
scalar barabasi_100nodes_network.content_distribution 	client-26 	52
scalar barabasi_100nodes_network.content_distribution 	client-27 	67
scalar barabasi_100nodes_network.content_distribution 	client-28 	44
scalar barabasi_100nodes_network.content_distribution 	client-29 	82
scalar barabasi_100nodes_network.content_distribution 	client-30 	14
scalar barabasi_100nodes_network.content_distribution 	client-31 	49
scalar barabasi_100nodes_network.content_distribution 	client-32 	6
scalar barabasi_100nodes_network.content_distribution 	client-33 	91
scalar barabasi_100nodes_network.content_distribution 	client-34 	60
scalar barabasi_100nodes_network.content_distribution 	client-35 	75
scalar barabasi_100nodes_network.content_distribution 	client-36 	59
scalar barabasi_100nodes_network.content_distribution 	client-37 	32
scalar barabasi_100nodes_network.content_distribution 	client-38 	15
scalar barabasi_100nodes_network.content_distribution 	client-39 	85
scalar barabasi_100nodes_network.content_distribution 	client-40 	62
scalar barabasi_100nodes_network.content_distribution 	client-41 	16
scalar barabasi_100nodes_network.content_distribution 	client-42 	21
scalar barabasi_100nodes_network.content_distribution 	client-43 	70
scalar barabasi_100nodes_network.content_distribution 	client-44 	5
scalar barabasi_100nodes_network.content_distribution 	client-45 	65
scalar barabasi_100nodes_network.content_distribution 	client-46 	30
scalar barabasi_100nodes_network.content_distribution 	client-47 	35
scalar barabasi_100nodes_network.content_distribution 	client-48 	46
scalar barabasi_100nodes_network.content_distribution 	client-49 	55
scalar barabasi_100nodes_network.content_distribution 	client-50 	2
scalar barabasi_100nodes_network.content_distribution 	client-51 	88
scalar barabasi_100nodes_network.content_distribution 	client-52 	41
scalar barabasi_100nodes_network.content_distribution 	client-53 	93
scalar barabasi_100nodes_network.content_distribution 	client-54 	69
scalar barabasi_100nodes_network.content_distribution 	client-55 	94
scalar barabasi_100nodes_network.content_distribution 	client-56 	56
scalar barabasi_100nodes_network.content_distribution 	client-57 	11
scalar barabasi_100nodes_network.content_distribution 	client-58 	22
scalar barabasi_100nodes_network.content_distribution 	client-59 	68
scalar barabasi_100nodes_network.content_distribution 	client-60 	97
scalar barabasi_100nodes_network.content_distribution 	client-61 	37
scalar barabasi_100nodes_network.content_distribution 	client-62 	9
scalar barabasi_100nodes_network.content_distribution 	client-63 	28
scalar barabasi_100nodes_network.content_distribution 	client-64 	83
scalar barabasi_100nodes_network.content_distribution 	client-65 	50
scalar barabasi_100nodes_network.content_distribution 	client-66 	61
scalar barabasi_100nodes_network.content_distribution 	client-67 	26
scalar barabasi_100nodes_network.content_distribution 	client-68 	53
scalar barabasi_100nodes_network.content_distribution 	client-69 	1
scalar barabasi_100nodes_network.content_distribution 	client-70 	73
scalar barabasi_100nodes_network.content_distribution 	client-71 	92
scalar barabasi_100nodes_network.content_distribution 	client-72 	72
scalar barabasi_100nodes_network.content_distribution 	client-73 	40
scalar barabasi_100nodes_network.content_distribution 	client-74 	87
scalar barabasi_100nodes_network.content_distribution 	client-75 	66
scalar barabasi_100nodes_network.content_distribution 	client-76 	42
scalar barabasi_100nodes_network.content_distribution 	client-77 	89
scalar barabasi_100nodes_network.content_distribution 	client-78 	96
scalar barabasi_100nodes_network.content_distribution 	client-79 	47
scalar barabasi_100nodes_network.content_distribution 	client-80 	18
scalar barabasi_100nodes_network.content_distribution 	client-81 	33
scalar barabasi_100nodes_network.content_distribution 	client-82 	17
scalar barabasi_100nodes_network.content_distribution 	client-83 	51
scalar barabasi_100nodes_network.content_distribution 	client-84 	34
scalar barabasi_100nodes_network.content_distribution 	client-85 	4
scalar barabasi_100nodes_network.content_distribution 	client-86 	76
scalar barabasi_100nodes_network.content_distribution 	client-87 	13
scalar barabasi_100nodes_network.content_distribution 	client-88 	36
scalar barabasi_100nodes_network.content_distribution 	client-89 	58
scalar barabasi_100nodes_network.content_distribution 	client-90 	74
scalar barabasi_100nodes_network.content_distribution 	client-91 	23
scalar barabasi_100nodes_network.content_distribution 	client-92 	25
scalar barabasi_100nodes_network.content_distribution 	client-93 	77
scalar barabasi_100nodes_network.content_distribution 	client-94 	98
scalar barabasi_100nodes_network.content_distribution 	client-95 	27
scalar barabasi_100nodes_network.content_distribution 	client-96 	99
scalar barabasi_100nodes_network.content_distribution 	client-97 	19
scalar barabasi_100nodes_network.content_distribution 	client-98 	20
scalar barabasi_100nodes_network.content_distribution 	client-99 	63
scalar barabasi_100nodes_network.content_distribution 	repo-0_card 	249719
scalar barabasi_100nodes_network.content_distribution 	repo-0_price 	0
scalar barabasi_100nodes_network.content_distribution 	repo-1_card 	249423
scalar barabasi_100nodes_network.content_distribution 	repo-1_price 	0
scalar barabasi_100nodes_network.content_distribution 	repo-2_card 	249931
scalar barabasi_100nodes_network.content_distribution 	repo-2_price 	0
scalar barabasi_100nodes_network.content_distribution 	repo-3_card 	250927
scalar barabasi_100nodes_network.content_distribution 	repo-3_price 	0
scalar barabasi_100nodes_network.content_distribution 	repo-4_card 	0
scalar barabasi_100nodes_network.content_distribution 	repo-4_price 	0
scalar barabasi_100nodes_network.content_distribution 	repo-5_card 	0
scalar barabasi_100nodes_network.content_distribution 	repo-5_price 	0
scalar barabasi_100nodes_network.content_distribution 	repo-6_card 	0
scalar barabasi_100nodes_network.content_distribution 	repo-6_price 	0
scalar barabasi_100nodes_network.content_distribution 	repo-7_card 	0
scalar barabasi_100nodes_network.content_distribution 	repo-7_price 	0
scalar barabasi_100nodes_network.content_distribution 	repo-8_card 	0
scalar barabasi_100nodes_network.content_distribution 	repo-8_price 	0
scalar barabasi_100nodes_network.content_distribution 	repo-9_card 	0
scalar barabasi_100nodes_network.content_distribution 	repo-9_price 	0
scalar barabasi_100nodes_network.content_distribution 	repo-10_card 	0
scalar barabasi_100nodes_network.content_distribution 	repo-10_price 	0
scalar barabasi_100nodes_network.content_distribution 	repo-11_card 	0
scalar barabasi_100nodes_network.content_distribution 	repo-11_price 	0
scalar barabasi_100nodes_network.content_distribution 	repo-12_card 	0
scalar barabasi_100nodes_network.content_distribution 	repo-12_price 	0
scalar barabasi_100nodes_network.content_distribution 	repo-13_card 	0
scalar barabasi_100nodes_network.content_distribution 	repo-13_price 	0
scalar barabasi_100nodes_network.content_distribution 	repo-14_card 	0
scalar barabasi_100nodes_network.content_distribution 	repo-14_price 	0
scalar barabasi_100nodes_network.content_distribution 	repo-15_card 	0
scalar barabasi_100nodes_network.content_distribution 	repo-15_price 	0
scalar barabasi_100nodes_network.content_distribution 	repo-16_card 	0
scalar barabasi_100nodes_network.content_distribution 	repo-16_price 	0
scalar barabasi_100nodes_network.content_distribution 	repo-17_card 	0
scalar barabasi_100nodes_network.content_distribution 	repo-17_price 	0
scalar barabasi_100nodes_network.content_distribution 	repo-18_card 	0
scalar barabasi_100nodes_network.content_distribution 	repo-18_price 	0
scalar barabasi_100nodes_network.content_distribution 	repo-19_card 	0
scalar barabasi_100nodes_network.content_distribution 	repo-19_price 	0
scalar barabasi_100nodes_network.content_distribution 	repo-20_card 	0
scalar barabasi_100nodes_network.content_distribution 	repo-20_price 	0
scalar barabasi_100nodes_network.content_distribution 	repo-21_card 	0
scalar barabasi_100nodes_network.content_distribution 	repo-21_price 	0
scalar barabasi_100nodes_network.content_distribution 	repo-22_card 	0
scalar barabasi_100nodes_network.content_distribution 	repo-22_price 	0
scalar barabasi_100nodes_network.content_distribution 	repo-23_card 	0
scalar barabasi_100nodes_network.content_distribution 	repo-23_price 	0
scalar barabasi_100nodes_network.content_distribution 	repo-24_card 	0
scalar barabasi_100nodes_network.content_distribution 	repo-24_price 	0
scalar barabasi_100nodes_network.content_distribution 	repo-25_card 	0
scalar barabasi_100nodes_network.content_distribution 	repo-25_price 	0
scalar barabasi_100nodes_network.content_distribution 	repo-26_card 	0
scalar barabasi_100nodes_network.content_distribution 	repo-26_price 	0
scalar barabasi_100nodes_network.content_distribution 	repo-27_card 	0
scalar barabasi_100nodes_network.content_distribution 	repo-27_price 	0
scalar barabasi_100nodes_network.content_distribution 	repo-28_card 	0
scalar barabasi_100nodes_network.content_distribution 	repo-28_price 	0
scalar barabasi_100nodes_network.content_distribution 	repo-29_card 	0
scalar barabasi_100nodes_network.content_distribution 	repo-29_price 	0
scalar barabasi_100nodes_network.content_distribution 	repo-30_card 	0
scalar barabasi_100nodes_network.content_distribution 	repo-30_price 	0
scalar barabasi_100nodes_network.content_distribution 	repo-31_card 	0
scalar barabasi_100nodes_network.content_distribution 	repo-31_price 	0
scalar barabasi_100nodes_network.content_distribution 	repo-32_card 	0
scalar barabasi_100nodes_network.content_distribution 	repo-32_price 	0
scalar barabasi_100nodes_network.content_distribution 	repo-33_card 	0
scalar barabasi_100nodes_network.content_distribution 	repo-33_price 	0
scalar barabasi_100nodes_network.content_distribution 	repo-34_card 	0
scalar barabasi_100nodes_network.content_distribution 	repo-34_price 	0
scalar barabasi_100nodes_network.content_distribution 	repo-35_card 	0
scalar barabasi_100nodes_network.content_distribution 	repo-35_price 	0
scalar barabasi_100nodes_network.content_distribution 	repo-36_card 	0
scalar barabasi_100nodes_network.content_distribution 	repo-36_price 	0
scalar barabasi_100nodes_network.content_distribution 	repo-37_card 	0
scalar barabasi_100nodes_network.content_distribution 	repo-37_price 	0
scalar barabasi_100nodes_network.content_distribution 	repo-38_card 	0
scalar barabasi_100nodes_network.content_distribution 	repo-38_price 	0
scalar barabasi_100nodes_network.content_distribution 	repo-39_card 	0
scalar barabasi_100nodes_network.content_distribution 	repo-39_price 	0
scalar barabasi_100nodes_network.content_distribution 	repo-40_card 	0
scalar barabasi_100nodes_network.content_distribution 	repo-40_price 	0
scalar barabasi_100nodes_network.content_distribution 	repo-41_card 	0
scalar barabasi_100nodes_network.content_distribution 	repo-41_price 	0
scalar barabasi_100nodes_network.content_distribution 	repo-42_card 	0
scalar barabasi_100nodes_network.content_distribution 	repo-42_price 	0
scalar barabasi_100nodes_network.content_distribution 	repo-43_card 	0
scalar barabasi_100nodes_network.content_distribution 	repo-43_price 	0
scalar barabasi_100nodes_network.content_distribution 	repo-44_card 	0
scalar barabasi_100nodes_network.content_distribution 	repo-44_price 	0
scalar barabasi_100nodes_network.content_distribution 	repo-45_card 	0
scalar barabasi_100nodes_network.content_distribution 	repo-45_price 	0
scalar barabasi_100nodes_network.content_distribution 	repo-46_card 	0
scalar barabasi_100nodes_network.content_distribution 	repo-46_price 	0
scalar barabasi_100nodes_network.content_distribution 	repo-47_card 	0
scalar barabasi_100nodes_network.content_distribution 	repo-47_price 	0
scalar barabasi_100nodes_network.content_distribution 	repo-48_card 	0
scalar barabasi_100nodes_network.content_distribution 	repo-48_price 	0
scalar barabasi_100nodes_network.content_distribution 	repo-49_card 	0
scalar barabasi_100nodes_network.content_distribution 	repo-49_price 	0
scalar barabasi_100nodes_network.content_distribution 	repo-50_card 	0
scalar barabasi_100nodes_network.content_distribution 	repo-50_price 	0
scalar barabasi_100nodes_network.content_distribution 	repo-51_card 	0
scalar barabasi_100nodes_network.content_distribution 	repo-51_price 	0
scalar barabasi_100nodes_network.content_distribution 	repo-52_card 	0
scalar barabasi_100nodes_network.content_distribution 	repo-52_price 	0
scalar barabasi_100nodes_network.content_distribution 	repo-53_card 	0
scalar barabasi_100nodes_network.content_distribution 	repo-53_price 	0
scalar barabasi_100nodes_network.content_distribution 	repo-54_card 	0
scalar barabasi_100nodes_network.content_distribution 	repo-54_price 	0
scalar barabasi_100nodes_network.content_distribution 	repo-55_card 	0
scalar barabasi_100nodes_network.content_distribution 	repo-55_price 	0
scalar barabasi_100nodes_network.content_distribution 	repo-56_card 	0
scalar barabasi_100nodes_network.content_distribution 	repo-56_price 	0
scalar barabasi_100nodes_network.content_distribution 	repo-57_card 	0
scalar barabasi_100nodes_network.content_distribution 	repo-57_price 	0
scalar barabasi_100nodes_network.content_distribution 	repo-58_card 	0
scalar barabasi_100nodes_network.content_distribution 	repo-58_price 	0
scalar barabasi_100nodes_network.content_distribution 	repo-59_card 	0
scalar barabasi_100nodes_network.content_distribution 	repo-59_price 	0
scalar barabasi_100nodes_network.content_distribution 	repo-60_card 	0
scalar barabasi_100nodes_network.content_distribution 	repo-60_price 	0
scalar barabasi_100nodes_network.content_distribution 	repo-61_card 	0
scalar barabasi_100nodes_network.content_distribution 	repo-61_price 	0
scalar barabasi_100nodes_network.content_distribution 	repo-62_card 	0
scalar barabasi_100nodes_network.content_distribution 	repo-62_price 	0
scalar barabasi_100nodes_network.content_distribution 	repo-63_card 	0
scalar barabasi_100nodes_network.content_distribution 	repo-63_price 	0
scalar barabasi_100nodes_network.content_distribution 	repo-64_card 	0
scalar barabasi_100nodes_network.content_distribution 	repo-64_price 	0
scalar barabasi_100nodes_network.content_distribution 	repo-65_card 	0
scalar barabasi_100nodes_network.content_distribution 	repo-65_price 	0
scalar barabasi_100nodes_network.content_distribution 	repo-66_card 	0
scalar barabasi_100nodes_network.content_distribution 	repo-66_price 	0
scalar barabasi_100nodes_network.content_distribution 	repo-67_card 	0
scalar barabasi_100nodes_network.content_distribution 	repo-67_price 	0
scalar barabasi_100nodes_network.content_distribution 	repo-68_card 	0
scalar barabasi_100nodes_network.content_distribution 	repo-68_price 	0
scalar barabasi_100nodes_network.content_distribution 	repo-69_card 	0
scalar barabasi_100nodes_network.content_distribution 	repo-69_price 	0
scalar barabasi_100nodes_network.content_distribution 	repo-70_card 	0
scalar barabasi_100nodes_network.content_distribution 	repo-70_price 	0
scalar barabasi_100nodes_network.content_distribution 	repo-71_card 	0
scalar barabasi_100nodes_network.content_distribution 	repo-71_price 	0
scalar barabasi_100nodes_network.content_distribution 	repo-72_card 	0
scalar barabasi_100nodes_network.content_distribution 	repo-72_price 	0
scalar barabasi_100nodes_network.content_distribution 	repo-73_card 	0
scalar barabasi_100nodes_network.content_distribution 	repo-73_price 	0
scalar barabasi_100nodes_network.content_distribution 	repo-74_card 	0
scalar barabasi_100nodes_network.content_distribution 	repo-74_price 	0
scalar barabasi_100nodes_network.content_distribution 	repo-75_card 	0
scalar barabasi_100nodes_network.content_distribution 	repo-75_price 	0
scalar barabasi_100nodes_network.content_distribution 	repo-76_card 	0
scalar barabasi_100nodes_network.content_distribution 	repo-76_price 	0
scalar barabasi_100nodes_network.content_distribution 	repo-77_card 	0
scalar barabasi_100nodes_network.content_distribution 	repo-77_price 	0
scalar barabasi_100nodes_network.content_distribution 	repo-78_card 	0
scalar barabasi_100nodes_network.content_distribution 	repo-78_price 	0
scalar barabasi_100nodes_network.content_distribution 	repo-79_card 	0
scalar barabasi_100nodes_network.content_distribution 	repo-79_price 	0
scalar barabasi_100nodes_network.content_distribution 	repo-80_card 	0
scalar barabasi_100nodes_network.content_distribution 	repo-80_price 	0
scalar barabasi_100nodes_network.content_distribution 	repo-81_card 	0
scalar barabasi_100nodes_network.content_distribution 	repo-81_price 	0
scalar barabasi_100nodes_network.content_distribution 	repo-82_card 	0
scalar barabasi_100nodes_network.content_distribution 	repo-82_price 	0
scalar barabasi_100nodes_network.content_distribution 	repo-83_card 	0
scalar barabasi_100nodes_network.content_distribution 	repo-83_price 	0
scalar barabasi_100nodes_network.content_distribution 	repo-84_card 	0
scalar barabasi_100nodes_network.content_distribution 	repo-84_price 	0
scalar barabasi_100nodes_network.content_distribution 	repo-85_card 	0
scalar barabasi_100nodes_network.content_distribution 	repo-85_price 	0
scalar barabasi_100nodes_network.content_distribution 	repo-86_card 	0
scalar barabasi_100nodes_network.content_distribution 	repo-86_price 	0
scalar barabasi_100nodes_network.content_distribution 	repo-87_card 	0
scalar barabasi_100nodes_network.content_distribution 	repo-87_price 	0
scalar barabasi_100nodes_network.content_distribution 	repo-88_card 	0
scalar barabasi_100nodes_network.content_distribution 	repo-88_price 	0
scalar barabasi_100nodes_network.content_distribution 	repo-89_card 	0
scalar barabasi_100nodes_network.content_distribution 	repo-89_price 	0
scalar barabasi_100nodes_network.content_distribution 	repo-90_card 	0
scalar barabasi_100nodes_network.content_distribution 	repo-90_price 	0
scalar barabasi_100nodes_network.content_distribution 	repo-91_card 	0
scalar barabasi_100nodes_network.content_distribution 	repo-91_price 	0
scalar barabasi_100nodes_network.content_distribution 	repo-92_card 	0
scalar barabasi_100nodes_network.content_distribution 	repo-92_price 	0
scalar barabasi_100nodes_network.content_distribution 	repo-93_card 	0
scalar barabasi_100nodes_network.content_distribution 	repo-93_price 	0
scalar barabasi_100nodes_network.content_distribution 	repo-94_card 	0
scalar barabasi_100nodes_network.content_distribution 	repo-94_price 	0
scalar barabasi_100nodes_network.content_distribution 	repo-95_card 	0
scalar barabasi_100nodes_network.content_distribution 	repo-95_price 	0
scalar barabasi_100nodes_network.content_distribution 	repo-96_card 	0
scalar barabasi_100nodes_network.content_distribution 	repo-96_price 	0
scalar barabasi_100nodes_network.content_distribution 	repo-97_card 	0
scalar barabasi_100nodes_network.content_distribution 	repo-97_price 	0
scalar barabasi_100nodes_network.content_distribution 	repo-98_card 	0
scalar barabasi_100nodes_network.content_distribution 	repo-98_price 	0
scalar barabasi_100nodes_network.content_distribution 	repo-99_card 	0
scalar barabasi_100nodes_network.content_distribution 	repo-99_price 	0
scalar barabasi_100nodes_network.statistics 	stabilization_time 	356.5
scalar barabasi_100nodes_network.statistics 	p_hit 	0.11341534833368
scalar barabasi_100nodes_network.statistics 	interests 	983737.93
scalar barabasi_100nodes_network.statistics 	data 	501344.98
scalar barabasi_100nodes_network.statistics 	hdistance 	1.8658898635883
scalar barabasi_100nodes_network.statistics 	avg_time 	0
scalar barabasi_100nodes_network.statistics 	downloads 	18004512
scalar barabasi_100nodes_network.statistics 	total_cost 	0
scalar barabasi_100nodes_network.statistics 	total_replicas 	1000000
scalar barabasi_100nodes_network.statistics 	"representations_downloaded 0.380317:0:0:0:0.619683:" 	0
scalar barabasi_100nodes_network.statistics 	"slots_per_representation 100:233:500:833:1167:" 	0
scalar barabasi_100nodes_network.statistics 	inner_hit 	238.44867047771
scalar barabasi_100nodes_network.statistics 	execution_time 	2059
scalar barabasi_100nodes_network.node[0].core_layer 	interests[0] 	7715712
scalar barabasi_100nodes_network.node[0].core_layer 	data[0] 	5020690
scalar barabasi_100nodes_network.node[0].core_layer 	slots_sent[face$o[1]->client[0]] 	126845081
scalar barabasi_100nodes_network.node[0].core_layer 	slots_sent[face$o[2]->node[1]] 	71603980
scalar barabasi_100nodes_network.node[0].core_layer 	slots_sent[face$o[3]->node[2]] 	1338728677
scalar barabasi_100nodes_network.node[0].core_layer 	slots_sent[face$o[4]->node[5]] 	377588673
scalar barabasi_100nodes_network.node[0].core_layer 	slots_sent[face$o[5]->node[10]] 	140527605
scalar barabasi_100nodes_network.node[0].core_layer 	slots_sent[face$o[6]->node[11]] 	71858515
scalar barabasi_100nodes_network.node[0].core_layer 	slots_sent[face$o[7]->node[15]] 	206863171
scalar barabasi_100nodes_network.node[0].core_layer 	slots_sent[face$o[8]->node[21]] 	286325226
scalar barabasi_100nodes_network.node[0].core_layer 	slots_sent[face$o[9]->node[22]] 	100918703
scalar barabasi_100nodes_network.node[0].core_layer 	slots_sent[face$o[10]->node[28]] 	101078044
scalar barabasi_100nodes_network.node[0].core_layer 	slots_sent[face$o[11]->node[37]] 	100328911
scalar barabasi_100nodes_network.node[0].core_layer 	slots_sent[face$o[12]->node[44]] 	101013795
scalar barabasi_100nodes_network.node[0].core_layer 	slots_sent[face$o[13]->node[58]] 	194058716
scalar barabasi_100nodes_network.node[0].core_layer 	slots_sent[face$o[14]->node[73]] 	194975254
scalar barabasi_100nodes_network.node[0].core_layer 	slots_sent[face$o[15]->node[74]] 	101065443
scalar barabasi_100nodes_network.node[0].core_layer 	slots_sent[face$o[16]->node[93]] 	100810474
scalar barabasi_100nodes_network.node[0].content_store 	p_hit[0] 	0.046819269563198
scalar barabasi_100nodes_network.node[0].content_store 	hits[0] 	361244
scalar barabasi_100nodes_network.node[0].content_store 	misses[0] 	7354468
scalar barabasi_100nodes_network.node[0].content_store 	decision_yes[0] 	2608136
scalar barabasi_100nodes_network.node[0].content_store 	decision_no[0] 	2412554
scalar barabasi_100nodes_network.node[0].content_store 	decision_ratio[0] 	0.51947760168423
scalar barabasi_100nodes_network.node[0].proactive_component 	hdistance[0].proactive_component 	3.0361395931168
scalar barabasi_100nodes_network.node[0].proactive_component 	downloads[0].proactive_component 	2897736
scalar barabasi_100nodes_network.node[0].proactive_component 	avg_time[0].proactive_component 	0
scalar barabasi_100nodes_network.node[1].core_layer 	interests[1] 	4255642
scalar barabasi_100nodes_network.node[1].core_layer 	repo_load[1] 	4083568
scalar barabasi_100nodes_network.node[1].core_layer 	data[1] 	103155
scalar barabasi_100nodes_network.node[1].core_layer 	slots_sent[face$o[1]->client[1]] 	104047848
scalar barabasi_100nodes_network.node[1].core_layer 	slots_sent[face$o[2]->node[0]] 	1679312208
scalar barabasi_100nodes_network.node[1].content_store 	p_hit[1] 	0.016194736305357
scalar barabasi_100nodes_network.node[1].content_store 	hits[1] 	68919
scalar barabasi_100nodes_network.node[1].content_store 	misses[1] 	4186723
scalar barabasi_100nodes_network.node[1].content_store 	decision_yes[1] 	57440
scalar barabasi_100nodes_network.node[1].content_store 	decision_no[1] 	4129283
scalar barabasi_100nodes_network.node[1].content_store 	decision_ratio[1] 	0.013719560620562
scalar barabasi_100nodes_network.node[1].proactive_component 	hdistance[1].proactive_component 	1.1389676047703
scalar barabasi_100nodes_network.node[1].proactive_component 	downloads[1].proactive_component 	1711147
scalar barabasi_100nodes_network.node[1].proactive_component 	avg_time[1].proactive_component 	0
scalar barabasi_100nodes_network.node[2].core_layer 	interests[2] 	15906150
scalar barabasi_100nodes_network.node[2].core_layer 	data[2] 	10411247
scalar barabasi_100nodes_network.node[2].core_layer 	slots_sent[face$o[1]->client[2]] 	124765004
scalar barabasi_100nodes_network.node[2].core_layer 	slots_sent[face$o[2]->node[0]] 	1605637904
scalar barabasi_100nodes_network.node[2].core_layer 	slots_sent[face$o[3]->node[3]] 	195341921
scalar barabasi_100nodes_network.node[2].core_layer 	slots_sent[face$o[4]->node[4]] 	556504882
scalar barabasi_100nodes_network.node[2].core_layer 	slots_sent[face$o[5]->node[6]] 	71184716
scalar barabasi_100nodes_network.node[2].core_layer 	slots_sent[face$o[6]->node[7]] 	641967851
scalar barabasi_100nodes_network.node[2].core_layer 	slots_sent[face$o[7]->node[8]] 	686982237
scalar barabasi_100nodes_network.node[2].core_layer 	slots_sent[face$o[8]->node[13]] 	316867007
scalar barabasi_100nodes_network.node[2].core_layer 	slots_sent[face$o[9]->node[16]] 	620462175
scalar barabasi_100nodes_network.node[2].core_layer 	slots_sent[face$o[10]->node[18]] 	377561415
scalar barabasi_100nodes_network.node[2].core_layer 	slots_sent[face$o[11]->node[25]] 	195469055
scalar barabasi_100nodes_network.node[2].core_layer 	slots_sent[face$o[12]->node[26]] 	376277028
scalar barabasi_100nodes_network.node[2].core_layer 	slots_sent[face$o[13]->node[29]] 	101261911
scalar barabasi_100nodes_network.node[2].core_layer 	slots_sent[face$o[14]->node[32]] 	286614957
scalar barabasi_100nodes_network.node[2].core_layer 	slots_sent[face$o[15]->node[33]] 	100435357
scalar barabasi_100nodes_network.node[2].core_layer 	slots_sent[face$o[16]->node[34]] 	100468061
scalar barabasi_100nodes_network.node[2].core_layer 	slots_sent[face$o[17]->node[36]] 	194764531
scalar barabasi_100nodes_network.node[2].core_layer 	slots_sent[face$o[18]->node[41]] 	365337930
scalar barabasi_100nodes_network.node[2].core_layer 	slots_sent[face$o[19]->node[45]] 	100683627
scalar barabasi_100nodes_network.node[2].core_layer 	slots_sent[face$o[20]->node[59]] 	101248041
scalar barabasi_100nodes_network.node[2].core_layer 	slots_sent[face$o[21]->node[62]] 	287479497
scalar barabasi_100nodes_network.node[2].core_layer 	slots_sent[face$o[22]->node[79]] 	100974737
scalar barabasi_100nodes_network.node[2].content_store 	p_hit[2] 	0.039434684068741
scalar barabasi_100nodes_network.node[2].content_store 	hits[2] 	627254
scalar barabasi_100nodes_network.node[2].content_store 	misses[2] 	15278896
scalar barabasi_100nodes_network.node[2].content_store 	decision_yes[2] 	5463088
scalar barabasi_100nodes_network.node[2].content_store 	decision_no[2] 	4948159
scalar barabasi_100nodes_network.node[2].content_store 	decision_ratio[2] 	0.52472945844047
scalar barabasi_100nodes_network.node[2].proactive_component 	hdistance[2].proactive_component 	3.244244070236
scalar barabasi_100nodes_network.node[2].proactive_component 	downloads[2].proactive_component 	5942437
scalar barabasi_100nodes_network.node[2].proactive_component 	avg_time[2].proactive_component 	0
scalar barabasi_100nodes_network.node[3].core_layer 	interests[3] 	448965
scalar barabasi_100nodes_network.node[3].core_layer 	data[3] 	282892
scalar barabasi_100nodes_network.node[3].core_layer 	slots_sent[face$o[1]->client[3]] 	141007805
scalar barabasi_100nodes_network.node[3].core_layer 	slots_sent[face$o[2]->node[2]] 	0
scalar barabasi_100nodes_network.node[3].core_layer 	slots_sent[face$o[3]->node[52]] 	100715364
scalar barabasi_100nodes_network.node[3].content_store 	p_hit[3] 	0.23445702894435
scalar barabasi_100nodes_network.node[3].content_store 	hits[3] 	105263
scalar barabasi_100nodes_network.node[3].content_store 	misses[3] 	343702
scalar barabasi_100nodes_network.node[3].content_store 	decision_yes[3] 	156563
scalar barabasi_100nodes_network.node[3].content_store 	decision_no[3] 	126329
scalar barabasi_100nodes_network.node[3].content_store 	decision_ratio[3] 	0.55343735418464
scalar barabasi_100nodes_network.node[3].proactive_component 	hdistance[3].proactive_component 	4.2350795406659
scalar barabasi_100nodes_network.node[3].proactive_component 	downloads[3].proactive_component 	151872
scalar barabasi_100nodes_network.node[3].proactive_component 	avg_time[3].proactive_component 	0
scalar barabasi_100nodes_network.node[4].core_layer 	interests[4] 	1243442
scalar barabasi_100nodes_network.node[4].core_layer 	data[4] 	813207
scalar barabasi_100nodes_network.node[4].core_layer 	slots_sent[face$o[1]->client[4]] 	138057535
scalar barabasi_100nodes_network.node[4].core_layer 	slots_sent[face$o[2]->node[2]] 	0
scalar barabasi_100nodes_network.node[4].core_layer 	slots_sent[face$o[3]->node[27]] 	195245608
scalar barabasi_100nodes_network.node[4].core_layer 	slots_sent[face$o[4]->node[30]] 	194929295
scalar barabasi_100nodes_network.node[4].core_layer 	slots_sent[face$o[5]->node[85]] 	101062902
scalar barabasi_100nodes_network.node[4].content_store 	p_hit[4] 	0.10456137077564
scalar barabasi_100nodes_network.node[4].content_store 	hits[4] 	130016
scalar barabasi_100nodes_network.node[4].content_store 	misses[4] 	1113426
scalar barabasi_100nodes_network.node[4].content_store 	decision_yes[4] 	445346
scalar barabasi_100nodes_network.node[4].content_store 	decision_no[4] 	367861
scalar barabasi_100nodes_network.node[4].content_store 	decision_ratio[4] 	0.54764162138299
scalar barabasi_100nodes_network.node[4].proactive_component 	hdistance[4].proactive_component 	4.2363792072208
scalar barabasi_100nodes_network.node[4].proactive_component 	downloads[4].proactive_component 	441384
scalar barabasi_100nodes_network.node[4].proactive_component 	avg_time[4].proactive_component 	0
scalar barabasi_100nodes_network.node[5].core_layer 	interests[5] 	843192
scalar barabasi_100nodes_network.node[5].core_layer 	data[5] 	548009
scalar barabasi_100nodes_network.node[5].core_layer 	slots_sent[face$o[1]->client[5]] 	139769405
scalar barabasi_100nodes_network.node[5].core_layer 	slots_sent[face$o[2]->node[0]] 	0
scalar barabasi_100nodes_network.node[5].core_layer 	slots_sent[face$o[3]->node[9]] 	101063812
scalar barabasi_100nodes_network.node[5].core_layer 	slots_sent[face$o[4]->node[35]] 	194747187
scalar barabasi_100nodes_network.node[5].content_store 	p_hit[5] 	0.13717516295221
scalar barabasi_100nodes_network.node[5].content_store 	hits[5] 	115665
scalar barabasi_100nodes_network.node[5].content_store 	misses[5] 	727527
scalar barabasi_100nodes_network.node[5].content_store 	decision_yes[5] 	302519
scalar barabasi_100nodes_network.node[5].content_store 	decision_no[5] 	245490
scalar barabasi_100nodes_network.node[5].content_store 	decision_ratio[5] 	0.55203290456909
scalar barabasi_100nodes_network.node[5].proactive_component 	hdistance[5].proactive_component 	4.7222572937456
scalar barabasi_100nodes_network.node[5].proactive_component 	downloads[5].proactive_component 	294636
scalar barabasi_100nodes_network.node[5].proactive_component 	avg_time[5].proactive_component 	0
scalar barabasi_100nodes_network.node[6].core_layer 	interests[6] 	266754
scalar barabasi_100nodes_network.node[6].core_layer 	repo_load[6] 	82328
scalar barabasi_100nodes_network.node[6].core_layer 	data[6] 	103145
scalar barabasi_100nodes_network.node[6].core_layer 	slots_sent[face$o[1]->client[6]] 	116360844
scalar barabasi_100nodes_network.node[6].core_layer 	slots_sent[face$o[2]->node[2]] 	0
scalar barabasi_100nodes_network.node[6].content_store 	p_hit[6] 	0.30470395945328
scalar barabasi_100nodes_network.node[6].content_store 	hits[6] 	81281
scalar barabasi_100nodes_network.node[6].content_store 	misses[6] 	185473
scalar barabasi_100nodes_network.node[6].content_store 	decision_yes[6] 	57048
scalar barabasi_100nodes_network.node[6].content_store 	decision_no[6] 	128425
scalar barabasi_100nodes_network.node[6].content_store 	decision_ratio[6] 	0.30758115736522
scalar barabasi_100nodes_network.node[6].proactive_component 	hdistance[6].proactive_component 	2.7560514660965
scalar barabasi_100nodes_network.node[6].proactive_component 	downloads[6].proactive_component 	104768
scalar barabasi_100nodes_network.node[6].proactive_component 	avg_time[6].proactive_component 	0
scalar barabasi_100nodes_network.node[7].core_layer 	interests[7] 	6429121
scalar barabasi_100nodes_network.node[7].core_layer 	repo_load[7] 	876890
scalar barabasi_100nodes_network.node[7].core_layer 	data[7] 	3579805
scalar barabasi_100nodes_network.node[7].core_layer 	slots_sent[face$o[1]->client[7]] 	92832950
scalar barabasi_100nodes_network.node[7].core_layer 	slots_sent[face$o[2]->node[2]] 	1776276283
scalar barabasi_100nodes_network.node[7].core_layer 	slots_sent[face$o[3]->node[23]] 	505375585
scalar barabasi_100nodes_network.node[7].core_layer 	slots_sent[face$o[4]->node[31]] 	354595622
scalar barabasi_100nodes_network.node[7].core_layer 	slots_sent[face$o[5]->node[49]] 	100608586
scalar barabasi_100nodes_network.node[7].core_layer 	slots_sent[face$o[6]->node[90]] 	101287903
scalar barabasi_100nodes_network.node[7].content_store 	p_hit[7] 	0.045474023587361
scalar barabasi_100nodes_network.node[7].content_store 	hits[7] 	292358
scalar barabasi_100nodes_network.node[7].content_store 	misses[7] 	6136763
scalar barabasi_100nodes_network.node[7].content_store 	decision_yes[7] 	1843423
scalar barabasi_100nodes_network.node[7].content_store 	decision_no[7] 	2613272
scalar barabasi_100nodes_network.node[7].content_store 	decision_ratio[7] 	0.41363005545589
scalar barabasi_100nodes_network.node[7].proactive_component 	hdistance[7].proactive_component 	2.9078619562168
scalar barabasi_100nodes_network.node[7].proactive_component 	downloads[7].proactive_component 	2458930
scalar barabasi_100nodes_network.node[7].proactive_component 	avg_time[7].proactive_component 	0
scalar barabasi_100nodes_network.node[8].core_layer 	interests[8] 	1539965
scalar barabasi_100nodes_network.node[8].core_layer 	data[8] 	1006540
scalar barabasi_100nodes_network.node[8].core_layer 	slots_sent[face$o[1]->client[8]] 	137451317
scalar barabasi_100nodes_network.node[8].core_layer 	slots_sent[face$o[2]->node[2]] 	0
scalar barabasi_100nodes_network.node[8].core_layer 	slots_sent[face$o[3]->node[12]] 	100909656
scalar barabasi_100nodes_network.node[8].core_layer 	slots_sent[face$o[4]->node[14]] 	71854141
scalar barabasi_100nodes_network.node[8].core_layer 	slots_sent[face$o[5]->node[17]] 	71134774
scalar barabasi_100nodes_network.node[8].core_layer 	slots_sent[face$o[6]->node[39]] 	193552028
scalar barabasi_100nodes_network.node[8].core_layer 	slots_sent[face$o[7]->node[61]] 	100470703
scalar barabasi_100nodes_network.node[8].core_layer 	slots_sent[face$o[8]->node[66]] 	100763750
scalar barabasi_100nodes_network.node[8].content_store 	p_hit[8] 	0.093794988847149
scalar barabasi_100nodes_network.node[8].content_store 	hits[8] 	144441
scalar barabasi_100nodes_network.node[8].content_store 	misses[8] 	1395524
scalar barabasi_100nodes_network.node[8].content_store 	decision_yes[8] 	549511
scalar barabasi_100nodes_network.node[8].content_store 	decision_no[8] 	457029
scalar barabasi_100nodes_network.node[8].content_store 	decision_ratio[8] 	0.54594054881078
scalar barabasi_100nodes_network.node[8].proactive_component 	hdistance[8].proactive_component 	4.2220040294815
scalar barabasi_100nodes_network.node[8].proactive_component 	downloads[8].proactive_component 	548954
scalar barabasi_100nodes_network.node[8].proactive_component 	avg_time[8].proactive_component 	0
scalar barabasi_100nodes_network.node[9].core_layer 	interests[9] 	240397
scalar barabasi_100nodes_network.node[9].core_layer 	data[9] 	141716
scalar barabasi_100nodes_network.node[9].core_layer 	slots_sent[face$o[1]->client[9]] 	145877779
scalar barabasi_100nodes_network.node[9].core_layer 	slots_sent[face$o[2]->node[5]] 	0
scalar barabasi_100nodes_network.node[9].content_store 	p_hit[9] 	0.41049181146187
scalar barabasi_100nodes_network.node[9].content_store 	hits[9] 	98681
scalar barabasi_100nodes_network.node[9].content_store 	misses[9] 	141716
scalar barabasi_100nodes_network.node[9].content_store 	decision_yes[9] 	81436
scalar barabasi_100nodes_network.node[9].content_store 	decision_no[9] 	60280
scalar barabasi_100nodes_network.node[9].content_store 	decision_ratio[9] 	0.57464224223094
scalar barabasi_100nodes_network.node[9].proactive_component 	hdistance[9].proactive_component 	5.720290276566
scalar barabasi_100nodes_network.node[9].proactive_component 	downloads[9].proactive_component 	72207
scalar barabasi_100nodes_network.node[9].proactive_component 	avg_time[9].proactive_component 	0
scalar barabasi_100nodes_network.node[10].core_layer 	interests[10] 	471702
scalar barabasi_100nodes_network.node[10].core_layer 	repo_load[10] 	129511
scalar barabasi_100nodes_network.node[10].core_layer 	data[10] 	203674
scalar barabasi_100nodes_network.node[10].core_layer 	slots_sent[face$o[1]->client[10]] 	124212001
scalar barabasi_100nodes_network.node[10].core_layer 	slots_sent[face$o[2]->node[0]] 	0
scalar barabasi_100nodes_network.node[10].core_layer 	slots_sent[face$o[3]->node[71]] 	100942451
scalar barabasi_100nodes_network.node[10].content_store 	p_hit[10] 	0.19969599450501
scalar barabasi_100nodes_network.node[10].content_store 	hits[10] 	94197
scalar barabasi_100nodes_network.node[10].content_store 	misses[10] 	377505
scalar barabasi_100nodes_network.node[10].content_store 	decision_yes[10] 	112615
scalar barabasi_100nodes_network.node[10].content_store 	decision_no[10] 	220570
scalar barabasi_100nodes_network.node[10].content_store 	decision_ratio[10] 	0.33799540795654
scalar barabasi_100nodes_network.node[10].proactive_component 	hdistance[10].proactive_component 	3.2680550870955
scalar barabasi_100nodes_network.node[10].proactive_component 	downloads[10].proactive_component 	174923
scalar barabasi_100nodes_network.node[10].proactive_component 	avg_time[10].proactive_component 	0
scalar barabasi_100nodes_network.node[11].core_layer 	interests[11] 	280604
scalar barabasi_100nodes_network.node[11].core_layer 	repo_load[11] 	108128
scalar barabasi_100nodes_network.node[11].core_layer 	data[11] 	103513
scalar barabasi_100nodes_network.node[11].core_layer 	slots_sent[face$o[1]->client[11]] 	104216780
scalar barabasi_100nodes_network.node[11].core_layer 	slots_sent[face$o[2]->node[0]] 	0
scalar barabasi_100nodes_network.node[11].content_store 	p_hit[11] 	0.24576627560548
scalar barabasi_100nodes_network.node[11].content_store 	hits[11] 	68963
scalar barabasi_100nodes_network.node[11].content_store 	misses[11] 	211641
scalar barabasi_100nodes_network.node[11].content_store 	decision_yes[11] 	57645
scalar barabasi_100nodes_network.node[11].content_store 	decision_no[11] 	153996
scalar barabasi_100nodes_network.node[11].content_store 	decision_ratio[11] 	0.27237161041575
scalar barabasi_100nodes_network.node[11].proactive_component 	hdistance[11].proactive_component 	2.9921614034503
scalar barabasi_100nodes_network.node[11].proactive_component 	downloads[11].proactive_component 	120047
scalar barabasi_100nodes_network.node[11].proactive_component 	avg_time[11].proactive_component 	0
scalar barabasi_100nodes_network.node[12].core_layer 	interests[12] 	241250
scalar barabasi_100nodes_network.node[12].core_layer 	data[12] 	141967
scalar barabasi_100nodes_network.node[12].core_layer 	slots_sent[face$o[1]->client[12]] 	145937184
scalar barabasi_100nodes_network.node[12].core_layer 	slots_sent[face$o[2]->node[8]] 	0
scalar barabasi_100nodes_network.node[12].content_store 	p_hit[12] 	0.41153575129534
scalar barabasi_100nodes_network.node[12].content_store 	hits[12] 	99283
scalar barabasi_100nodes_network.node[12].content_store 	misses[12] 	141967
scalar barabasi_100nodes_network.node[12].content_store 	decision_yes[12] 	81268
scalar barabasi_100nodes_network.node[12].content_store 	decision_no[12] 	60699
scalar barabasi_100nodes_network.node[12].content_store 	decision_ratio[12] 	0.57244289165792
scalar barabasi_100nodes_network.node[12].proactive_component 	hdistance[12].proactive_component 	5.2376572024823
scalar barabasi_100nodes_network.node[12].proactive_component 	downloads[12].proactive_component 	72836
scalar barabasi_100nodes_network.node[12].proactive_component 	avg_time[12].proactive_component 	0
scalar barabasi_100nodes_network.node[13].core_layer 	interests[13] 	1034113
scalar barabasi_100nodes_network.node[13].core_layer 	repo_load[13] 	310475
scalar barabasi_100nodes_network.node[13].core_layer 	data[13] 	462534
scalar barabasi_100nodes_network.node[13].core_layer 	slots_sent[face$o[1]->client[13]] 	114788817
scalar barabasi_100nodes_network.node[13].core_layer 	slots_sent[face$o[2]->node[2]] 	0
scalar barabasi_100nodes_network.node[13].core_layer 	slots_sent[face$o[3]->node[67]] 	101505652
scalar barabasi_100nodes_network.node[13].core_layer 	slots_sent[face$o[4]->node[78]] 	262028108
scalar barabasi_100nodes_network.node[13].content_store 	p_hit[13] 	0.096658682368368
scalar barabasi_100nodes_network.node[13].content_store 	hits[13] 	99956
scalar barabasi_100nodes_network.node[13].content_store 	misses[13] 	934157
scalar barabasi_100nodes_network.node[13].content_store 	decision_yes[13] 	253621
scalar barabasi_100nodes_network.node[13].content_store 	decision_no[13] 	519388
scalar barabasi_100nodes_network.node[13].content_store 	decision_ratio[13] 	0.32809579189893
scalar barabasi_100nodes_network.node[13].proactive_component 	hdistance[13].proactive_component 	3.1390419225852
scalar barabasi_100nodes_network.node[13].proactive_component 	downloads[13].proactive_component 	391889
scalar barabasi_100nodes_network.node[13].proactive_component 	avg_time[13].proactive_component 	0
scalar barabasi_100nodes_network.node[14].core_layer 	interests[14] 	277108
scalar barabasi_100nodes_network.node[14].core_layer 	repo_load[14] 	103494
scalar barabasi_100nodes_network.node[14].core_layer 	data[14] 	102637
scalar barabasi_100nodes_network.node[14].core_layer 	slots_sent[face$o[1]->client[14]] 	107444362
scalar barabasi_100nodes_network.node[14].core_layer 	slots_sent[face$o[2]->node[8]] 	0
scalar barabasi_100nodes_network.node[14].content_store 	p_hit[14] 	0.25613479221098
scalar barabasi_100nodes_network.node[14].content_store 	hits[14] 	70977
scalar barabasi_100nodes_network.node[14].content_store 	misses[14] 	206131
scalar barabasi_100nodes_network.node[14].content_store 	decision_yes[14] 	57723
scalar barabasi_100nodes_network.node[14].content_store 	decision_no[14] 	148408
scalar barabasi_100nodes_network.node[14].content_store 	decision_ratio[14] 	0.2800306601142
scalar barabasi_100nodes_network.node[14].proactive_component 	hdistance[14].proactive_component 	2.8642840478021
scalar barabasi_100nodes_network.node[14].proactive_component 	downloads[14].proactive_component 	115727
scalar barabasi_100nodes_network.node[14].proactive_component 	avg_time[14].proactive_component 	0
scalar barabasi_100nodes_network.node[15].core_layer 	interests[15] 	704124
scalar barabasi_100nodes_network.node[15].core_layer 	repo_load[15] 	226034
scalar barabasi_100nodes_network.node[15].core_layer 	data[15] 	303675
scalar barabasi_100nodes_network.node[15].core_layer 	slots_sent[face$o[1]->client[15]] 	104055788
scalar barabasi_100nodes_network.node[15].core_layer 	slots_sent[face$o[2]->node[0]] 	0
scalar barabasi_100nodes_network.node[15].core_layer 	slots_sent[face$o[3]->node[40]] 	101020691
scalar barabasi_100nodes_network.node[15].core_layer 	slots_sent[face$o[4]->node[56]] 	100924031
scalar barabasi_100nodes_network.node[15].content_store 	p_hit[15] 	0.12044469440042
scalar barabasi_100nodes_network.node[15].content_store 	hits[15] 	84808
scalar barabasi_100nodes_network.node[15].content_store 	misses[15] 	619316
scalar barabasi_100nodes_network.node[15].content_store 	decision_yes[15] 	165413
scalar barabasi_100nodes_network.node[15].content_store 	decision_no[15] 	364296
scalar barabasi_100nodes_network.node[15].content_store 	decision_ratio[15] 	0.31227145470438
scalar barabasi_100nodes_network.node[15].proactive_component 	hdistance[15].proactive_component 	2.9942854462871
scalar barabasi_100nodes_network.node[15].proactive_component 	downloads[15].proactive_component 	277187
scalar barabasi_100nodes_network.node[15].proactive_component 	avg_time[15].proactive_component 	0
scalar barabasi_100nodes_network.node[16].core_layer 	interests[16] 	1370359
scalar barabasi_100nodes_network.node[16].core_layer 	data[16] 	907767
scalar barabasi_100nodes_network.node[16].core_layer 	slots_sent[face$o[1]->client[16]] 	137301882
scalar barabasi_100nodes_network.node[16].core_layer 	slots_sent[face$o[2]->node[2]] 	0
scalar barabasi_100nodes_network.node[16].core_layer 	slots_sent[face$o[3]->node[19]] 	442640409
scalar barabasi_100nodes_network.node[16].core_layer 	slots_sent[face$o[4]->node[20]] 	100328634
scalar barabasi_100nodes_network.node[16].content_store 	p_hit[16] 	0.086857531493572
scalar barabasi_100nodes_network.node[16].content_store 	hits[16] 	119026
scalar barabasi_100nodes_network.node[16].content_store 	misses[16] 	1251333
scalar barabasi_100nodes_network.node[16].content_store 	decision_yes[16] 	496425
scalar barabasi_100nodes_network.node[16].content_store 	decision_no[16] 	411342
scalar barabasi_100nodes_network.node[16].content_store 	decision_ratio[16] 	0.5468638978945
scalar barabasi_100nodes_network.node[16].proactive_component 	hdistance[16].proactive_component 	4.2439150866958
scalar barabasi_100nodes_network.node[16].proactive_component 	downloads[16].proactive_component 	493680
scalar barabasi_100nodes_network.node[16].proactive_component 	avg_time[16].proactive_component 	0
scalar barabasi_100nodes_network.node[17].core_layer 	interests[17] 	263828
scalar barabasi_100nodes_network.node[17].core_layer 	repo_load[17] 	81710
scalar barabasi_100nodes_network.node[17].core_layer 	data[17] 	100789
scalar barabasi_100nodes_network.node[17].core_layer 	slots_sent[face$o[1]->client[17]] 	119288528
scalar barabasi_100nodes_network.node[17].core_layer 	slots_sent[face$o[2]->node[8]] 	0
scalar barabasi_100nodes_network.node[17].content_store 	p_hit[17] 	0.30826523340965
scalar barabasi_100nodes_network.node[17].content_store 	hits[17] 	81329
scalar barabasi_100nodes_network.node[17].content_store 	misses[17] 	182499
scalar barabasi_100nodes_network.node[17].content_store 	decision_yes[17] 	57222
scalar barabasi_100nodes_network.node[17].content_store 	decision_no[17] 	125277
scalar barabasi_100nodes_network.node[17].content_store 	decision_ratio[17] 	0.31354692354479
scalar barabasi_100nodes_network.node[17].proactive_component 	hdistance[17].proactive_component 	3.2350279032163
scalar barabasi_100nodes_network.node[17].proactive_component 	downloads[17].proactive_component 	101422
scalar barabasi_100nodes_network.node[17].proactive_component 	avg_time[17].proactive_component 	0
scalar barabasi_100nodes_network.node[18].core_layer 	interests[18] 	850545
scalar barabasi_100nodes_network.node[18].core_layer 	data[18] 	549593
scalar barabasi_100nodes_network.node[18].core_layer 	slots_sent[face$o[1]->client[18]] 	138939609
scalar barabasi_100nodes_network.node[18].core_layer 	slots_sent[face$o[2]->node[2]] 	0
scalar barabasi_100nodes_network.node[18].core_layer 	slots_sent[face$o[3]->node[53]] 	100350877
scalar barabasi_100nodes_network.node[18].core_layer 	slots_sent[face$o[4]->node[68]] 	100313576
scalar barabasi_100nodes_network.node[18].core_layer 	slots_sent[face$o[5]->node[72]] 	100629921
scalar barabasi_100nodes_network.node[18].content_store 	p_hit[18] 	0.14176087097097
scalar barabasi_100nodes_network.node[18].content_store 	hits[18] 	120574
scalar barabasi_100nodes_network.node[18].content_store 	misses[18] 	729971
scalar barabasi_100nodes_network.node[18].content_store 	decision_yes[18] 	302345
scalar barabasi_100nodes_network.node[18].content_store 	decision_no[18] 	247248
scalar barabasi_100nodes_network.node[18].content_store 	decision_ratio[18] 	0.55012527452133
scalar barabasi_100nodes_network.node[18].proactive_component 	hdistance[18].proactive_component 	4.2365904575912
scalar barabasi_100nodes_network.node[18].proactive_component 	downloads[18].proactive_component 	296990
scalar barabasi_100nodes_network.node[18].proactive_component 	avg_time[18].proactive_component 	0
scalar barabasi_100nodes_network.node[19].core_layer 	interests[19] 	982993
scalar barabasi_100nodes_network.node[19].core_layer 	data[19] 	638266
scalar barabasi_100nodes_network.node[19].core_layer 	slots_sent[face$o[1]->client[19]] 	142121393
scalar barabasi_100nodes_network.node[19].core_layer 	slots_sent[face$o[2]->node[16]] 	0
scalar barabasi_100nodes_network.node[19].core_layer 	slots_sent[face$o[3]->node[63]] 	100119788
scalar barabasi_100nodes_network.node[19].core_layer 	slots_sent[face$o[4]->node[70]] 	100294869
scalar barabasi_100nodes_network.node[19].core_layer 	slots_sent[face$o[5]->node[80]] 	100092017
scalar barabasi_100nodes_network.node[19].core_layer 	slots_sent[face$o[6]->node[89]] 	71768838
scalar barabasi_100nodes_network.node[19].content_store 	p_hit[19] 	0.12790121598017
scalar barabasi_100nodes_network.node[19].content_store 	hits[19] 	125726
scalar barabasi_100nodes_network.node[19].content_store 	misses[19] 	857267
scalar barabasi_100nodes_network.node[19].content_store 	decision_yes[19] 	355027
scalar barabasi_100nodes_network.node[19].content_store 	decision_no[19] 	283239
scalar barabasi_100nodes_network.node[19].content_store 	decision_ratio[19] 	0.55623674142129
scalar barabasi_100nodes_network.node[19].proactive_component 	hdistance[19].proactive_component 	5.2489487334812
scalar barabasi_100nodes_network.node[19].proactive_component 	downloads[19].proactive_component 	340066
scalar barabasi_100nodes_network.node[19].proactive_component 	avg_time[19].proactive_component 	0
scalar barabasi_100nodes_network.node[20].core_layer 	interests[20] 	240176
scalar barabasi_100nodes_network.node[20].core_layer 	data[20] 	141129
scalar barabasi_100nodes_network.node[20].core_layer 	slots_sent[face$o[1]->client[20]] 	145514874
scalar barabasi_100nodes_network.node[20].core_layer 	slots_sent[face$o[2]->node[16]] 	0
scalar barabasi_100nodes_network.node[20].content_store 	p_hit[20] 	0.41239341149823
scalar barabasi_100nodes_network.node[20].content_store 	hits[20] 	99047
scalar barabasi_100nodes_network.node[20].content_store 	misses[20] 	141129
scalar barabasi_100nodes_network.node[20].content_store 	decision_yes[20] 	80802
scalar barabasi_100nodes_network.node[20].content_store 	decision_no[20] 	60327
scalar barabasi_100nodes_network.node[20].content_store 	decision_ratio[20] 	0.57254001658058
scalar barabasi_100nodes_network.node[20].proactive_component 	hdistance[20].proactive_component 	5.2374371859296
scalar barabasi_100nodes_network.node[20].proactive_component 	downloads[20].proactive_component 	72436
scalar barabasi_100nodes_network.node[20].proactive_component 	avg_time[20].proactive_component 	0
scalar barabasi_100nodes_network.node[21].core_layer 	interests[21] 	646324
scalar barabasi_100nodes_network.node[21].core_layer 	data[21] 	414722
scalar barabasi_100nodes_network.node[21].core_layer 	slots_sent[face$o[1]->client[21]] 	139824333
scalar barabasi_100nodes_network.node[21].core_layer 	slots_sent[face$o[2]->node[0]] 	0
scalar barabasi_100nodes_network.node[21].core_layer 	slots_sent[face$o[3]->node[24]] 	100220252
scalar barabasi_100nodes_network.node[21].core_layer 	slots_sent[face$o[4]->node[57]] 	100380427
scalar barabasi_100nodes_network.node[21].content_store 	p_hit[21] 	0.17313143253229
scalar barabasi_100nodes_network.node[21].content_store 	hits[21] 	111899
scalar barabasi_100nodes_network.node[21].content_store 	misses[21] 	534425
scalar barabasi_100nodes_network.node[21].content_store 	decision_yes[21] 	229478
scalar barabasi_100nodes_network.node[21].content_store 	decision_no[21] 	185244
scalar barabasi_100nodes_network.node[21].content_store 	decision_ratio[21] 	0.5533297003776
scalar barabasi_100nodes_network.node[21].proactive_component 	hdistance[21].proactive_component 	4.71937494103
scalar barabasi_100nodes_network.node[21].proactive_component 	downloads[21].proactive_component 	222571
scalar barabasi_100nodes_network.node[21].proactive_component 	avg_time[21].proactive_component 	0
scalar barabasi_100nodes_network.node[22].core_layer 	interests[22] 	243600
scalar barabasi_100nodes_network.node[22].core_layer 	data[22] 	144821
scalar barabasi_100nodes_network.node[22].core_layer 	slots_sent[face$o[1]->client[22]] 	141725192
scalar barabasi_100nodes_network.node[22].core_layer 	slots_sent[face$o[2]->node[0]] 	0
scalar barabasi_100nodes_network.node[22].content_store 	p_hit[22] 	0.40549671592775
scalar barabasi_100nodes_network.node[22].content_store 	hits[22] 	98779
scalar barabasi_100nodes_network.node[22].content_store 	misses[22] 	144821
scalar barabasi_100nodes_network.node[22].content_store 	decision_yes[22] 	81009
scalar barabasi_100nodes_network.node[22].content_store 	decision_no[22] 	63812
scalar barabasi_100nodes_network.node[22].content_store 	decision_ratio[22] 	0.55937329530938
scalar barabasi_100nodes_network.node[22].proactive_component 	hdistance[22].proactive_component 	4.7119314694629
scalar barabasi_100nodes_network.node[22].proactive_component 	downloads[22].proactive_component 	76579
scalar barabasi_100nodes_network.node[22].proactive_component 	avg_time[22].proactive_component 	0
scalar barabasi_100nodes_network.node[23].core_layer 	interests[23] 	5307895
scalar barabasi_100nodes_network.node[23].core_layer 	data[23] 	3523206
scalar barabasi_100nodes_network.node[23].core_layer 	slots_sent[face$o[1]->client[23]] 	117595017
scalar barabasi_100nodes_network.node[23].core_layer 	slots_sent[face$o[2]->node[7]] 	1682944990
scalar barabasi_100nodes_network.node[23].core_layer 	slots_sent[face$o[3]->node[46]] 	140464377
scalar barabasi_100nodes_network.node[23].core_layer 	slots_sent[face$o[4]->node[47]] 	72031647
scalar barabasi_100nodes_network.node[23].core_layer 	slots_sent[face$o[5]->node[51]] 	101200698
scalar barabasi_100nodes_network.node[23].core_layer 	slots_sent[face$o[6]->node[83]] 	101166757
scalar barabasi_100nodes_network.node[23].core_layer 	slots_sent[face$o[7]->node[86]] 	101219905
scalar barabasi_100nodes_network.node[23].content_store 	p_hit[23] 	0.025522735472348
scalar barabasi_100nodes_network.node[23].content_store 	hits[23] 	135472
scalar barabasi_100nodes_network.node[23].content_store 	misses[23] 	5172423
scalar barabasi_100nodes_network.node[23].content_store 	decision_yes[23] 	1787445
scalar barabasi_100nodes_network.node[23].content_store 	decision_no[23] 	1735761
scalar barabasi_100nodes_network.node[23].content_store 	decision_ratio[23] 	0.50733479677317
scalar barabasi_100nodes_network.node[23].proactive_component 	hdistance[23].proactive_component 	2.3622455950605
scalar barabasi_100nodes_network.node[23].proactive_component 	downloads[23].proactive_component 	2085897
scalar barabasi_100nodes_network.node[23].proactive_component 	avg_time[23].proactive_component 	0
scalar barabasi_100nodes_network.node[24].core_layer 	interests[24] 	239963
scalar barabasi_100nodes_network.node[24].core_layer 	data[24] 	140536
scalar barabasi_100nodes_network.node[24].core_layer 	slots_sent[face$o[1]->client[24]] 	146488301
scalar barabasi_100nodes_network.node[24].core_layer 	slots_sent[face$o[2]->node[21]] 	0
scalar barabasi_100nodes_network.node[24].content_store 	p_hit[24] 	0.4143430445527
scalar barabasi_100nodes_network.node[24].content_store 	hits[24] 	99427
scalar barabasi_100nodes_network.node[24].content_store 	misses[24] 	140536
scalar barabasi_100nodes_network.node[24].content_store 	decision_yes[24] 	80756
scalar barabasi_100nodes_network.node[24].content_store 	decision_no[24] 	59780
scalar barabasi_100nodes_network.node[24].content_store 	decision_ratio[24] 	0.57462856492287
scalar barabasi_100nodes_network.node[24].proactive_component 	hdistance[24].proactive_component 	5.7249091339526
scalar barabasi_100nodes_network.node[24].proactive_component 	downloads[24].proactive_component 	71809
scalar barabasi_100nodes_network.node[24].proactive_component 	avg_time[24].proactive_component 	0
scalar barabasi_100nodes_network.node[25].core_layer 	interests[25] 	448853
scalar barabasi_100nodes_network.node[25].core_layer 	data[25] 	283075
scalar barabasi_100nodes_network.node[25].core_layer 	slots_sent[face$o[1]->client[25]] 	140723355
scalar barabasi_100nodes_network.node[25].core_layer 	slots_sent[face$o[2]->node[2]] 	0
scalar barabasi_100nodes_network.node[25].core_layer 	slots_sent[face$o[3]->node[38]] 	100688156
scalar barabasi_100nodes_network.node[25].content_store 	p_hit[25] 	0.23384047784018
scalar barabasi_100nodes_network.node[25].content_store 	hits[25] 	104960
scalar barabasi_100nodes_network.node[25].content_store 	misses[25] 	343893
scalar barabasi_100nodes_network.node[25].content_store 	decision_yes[25] 	156665
scalar barabasi_100nodes_network.node[25].content_store 	decision_no[25] 	126410
scalar barabasi_100nodes_network.node[25].content_store 	decision_ratio[25] 	0.55343990108628
scalar barabasi_100nodes_network.node[25].proactive_component 	hdistance[25].proactive_component 	4.2354641782297
scalar barabasi_100nodes_network.node[25].proactive_component 	downloads[25].proactive_component 	151849
scalar barabasi_100nodes_network.node[25].proactive_component 	avg_time[25].proactive_component 	0
scalar barabasi_100nodes_network.node[26].core_layer 	interests[26] 	843949
scalar barabasi_100nodes_network.node[26].core_layer 	data[26] 	548070
scalar barabasi_100nodes_network.node[26].core_layer 	slots_sent[face$o[1]->client[26]] 	138404365
scalar barabasi_100nodes_network.node[26].core_layer 	slots_sent[face$o[2]->node[2]] 	0
scalar barabasi_100nodes_network.node[26].core_layer 	slots_sent[face$o[3]->node[77]] 	194443613
scalar barabasi_100nodes_network.node[26].core_layer 	slots_sent[face$o[4]->node[91]] 	100720581
scalar barabasi_100nodes_network.node[26].content_store 	p_hit[26] 	0.13703671667364
scalar barabasi_100nodes_network.node[26].content_store 	hits[26] 	115652
scalar barabasi_100nodes_network.node[26].content_store 	misses[26] 	728297
scalar barabasi_100nodes_network.node[26].content_store 	decision_yes[26] 	301284
scalar barabasi_100nodes_network.node[26].content_store 	decision_no[26] 	246786
scalar barabasi_100nodes_network.node[26].content_store 	decision_ratio[26] 	0.54971810170234
scalar barabasi_100nodes_network.node[26].proactive_component 	hdistance[26].proactive_component 	4.2358014360525
scalar barabasi_100nodes_network.node[26].proactive_component 	downloads[26].proactive_component 	296368
scalar barabasi_100nodes_network.node[26].proactive_component 	avg_time[26].proactive_component 	0
scalar barabasi_100nodes_network.node[27].core_layer 	interests[27] 	440083
scalar barabasi_100nodes_network.node[27].core_layer 	data[27] 	277010
scalar barabasi_100nodes_network.node[27].core_layer 	slots_sent[face$o[1]->client[27]] 	144488315
scalar barabasi_100nodes_network.node[27].core_layer 	slots_sent[face$o[2]->node[4]] 	0
scalar barabasi_100nodes_network.node[27].core_layer 	slots_sent[face$o[3]->node[99]] 	101039822
scalar barabasi_100nodes_network.node[27].content_store 	p_hit[27] 	0.23756882224489
scalar barabasi_100nodes_network.node[27].content_store 	hits[27] 	104550
scalar barabasi_100nodes_network.node[27].content_store 	misses[27] 	335533
scalar barabasi_100nodes_network.node[27].content_store 	decision_yes[27] 	157024
scalar barabasi_100nodes_network.node[27].content_store 	decision_no[27] 	119986
scalar barabasi_100nodes_network.node[27].content_store 	decision_ratio[27] 	0.56685318219559
scalar barabasi_100nodes_network.node[27].proactive_component 	hdistance[27].proactive_component 	5.2377430041882
scalar barabasi_100nodes_network.node[27].proactive_component 	downloads[27].proactive_component 	143979
scalar barabasi_100nodes_network.node[27].proactive_component 	avg_time[27].proactive_component 	0
scalar barabasi_100nodes_network.node[28].core_layer 	interests[28] 	244244
scalar barabasi_100nodes_network.node[28].core_layer 	data[28] 	145102
scalar barabasi_100nodes_network.node[28].core_layer 	slots_sent[face$o[1]->client[28]] 	142123768
scalar barabasi_100nodes_network.node[28].core_layer 	slots_sent[face$o[2]->node[0]] 	0
scalar barabasi_100nodes_network.node[28].content_store 	p_hit[28] 	0.40591375837277
scalar barabasi_100nodes_network.node[28].content_store 	hits[28] 	99142
scalar barabasi_100nodes_network.node[28].content_store 	misses[28] 	145102
scalar barabasi_100nodes_network.node[28].content_store 	decision_yes[28] 	81132
scalar barabasi_100nodes_network.node[28].content_store 	decision_no[28] 	63970
scalar barabasi_100nodes_network.node[28].content_store 	decision_ratio[28] 	0.55913771002467
scalar barabasi_100nodes_network.node[28].proactive_component 	hdistance[28].proactive_component 	4.7139636998528
scalar barabasi_100nodes_network.node[28].proactive_component 	downloads[28].proactive_component 	76749
scalar barabasi_100nodes_network.node[28].proactive_component 	avg_time[28].proactive_component 	0
scalar barabasi_100nodes_network.node[29].core_layer 	interests[29] 	244668
scalar barabasi_100nodes_network.node[29].core_layer 	data[29] 	145863
scalar barabasi_100nodes_network.node[29].core_layer 	slots_sent[face$o[1]->client[29]] 	141144136
scalar barabasi_100nodes_network.node[29].core_layer 	slots_sent[face$o[2]->node[2]] 	0
scalar barabasi_100nodes_network.node[29].content_store 	p_hit[29] 	0.40383294913924
scalar barabasi_100nodes_network.node[29].content_store 	hits[29] 	98805
scalar barabasi_100nodes_network.node[29].content_store 	misses[29] 	145863
scalar barabasi_100nodes_network.node[29].content_store 	decision_yes[29] 	81233
scalar barabasi_100nodes_network.node[29].content_store 	decision_no[29] 	64630
scalar barabasi_100nodes_network.node[29].content_store 	decision_ratio[29] 	0.55691299369957
scalar barabasi_100nodes_network.node[29].proactive_component 	hdistance[29].proactive_component 	4.2338226040503
scalar barabasi_100nodes_network.node[29].proactive_component 	downloads[29].proactive_component 	77871
scalar barabasi_100nodes_network.node[29].proactive_component 	avg_time[29].proactive_component 	0
scalar barabasi_100nodes_network.node[30].core_layer 	interests[30] 	438923
scalar barabasi_100nodes_network.node[30].core_layer 	data[30] 	276397
scalar barabasi_100nodes_network.node[30].core_layer 	slots_sent[face$o[1]->client[30]] 	144795433
scalar barabasi_100nodes_network.node[30].core_layer 	slots_sent[face$o[2]->node[4]] 	0
scalar barabasi_100nodes_network.node[30].core_layer 	slots_sent[face$o[3]->node[88]] 	100214500
scalar barabasi_100nodes_network.node[30].content_store 	p_hit[30] 	0.23804630880587
scalar barabasi_100nodes_network.node[30].content_store 	hits[30] 	104484
scalar barabasi_100nodes_network.node[30].content_store 	misses[30] 	334439
scalar barabasi_100nodes_network.node[30].content_store 	decision_yes[30] 	156785
scalar barabasi_100nodes_network.node[30].content_store 	decision_no[30] 	119612
scalar barabasi_100nodes_network.node[30].content_store 	decision_ratio[30] 	0.56724566475034
scalar barabasi_100nodes_network.node[30].proactive_component 	hdistance[30].proactive_component 	5.238285678516
scalar barabasi_100nodes_network.node[30].proactive_component 	downloads[30].proactive_component 	143777
scalar barabasi_100nodes_network.node[30].proactive_component 	avg_time[30].proactive_component 	0
scalar barabasi_100nodes_network.node[31].core_layer 	interests[31] 	803319
scalar barabasi_100nodes_network.node[31].core_layer 	data[31] 	525642
scalar barabasi_100nodes_network.node[31].core_layer 	slots_sent[face$o[1]->client[31]] 	134062066
scalar barabasi_100nodes_network.node[31].core_layer 	slots_sent[face$o[2]->node[7]] 	0
scalar barabasi_100nodes_network.node[31].core_layer 	slots_sent[face$o[3]->node[65]] 	261496423
scalar barabasi_100nodes_network.node[31].content_store 	p_hit[31] 	0.13201355874814
scalar barabasi_100nodes_network.node[31].content_store 	hits[31] 	106049
scalar barabasi_100nodes_network.node[31].content_store 	misses[31] 	697270
scalar barabasi_100nodes_network.node[31].content_store 	decision_yes[31] 	283066
scalar barabasi_100nodes_network.node[31].content_store 	decision_no[31] 	242576
scalar barabasi_100nodes_network.node[31].content_store 	decision_ratio[31] 	0.53851480665548
scalar barabasi_100nodes_network.node[31].proactive_component 	hdistance[31].proactive_component 	3.8880224771524
scalar barabasi_100nodes_network.node[31].proactive_component 	downloads[31].proactive_component 	291496
scalar barabasi_100nodes_network.node[31].proactive_component 	avg_time[31].proactive_component 	0
scalar barabasi_100nodes_network.node[32].core_layer 	interests[32] 	649018
scalar barabasi_100nodes_network.node[32].core_layer 	data[32] 	416627
scalar barabasi_100nodes_network.node[32].core_layer 	slots_sent[face$o[1]->client[32]] 	139445555
scalar barabasi_100nodes_network.node[32].core_layer 	slots_sent[face$o[2]->node[2]] 	0
scalar barabasi_100nodes_network.node[32].core_layer 	slots_sent[face$o[3]->node[43]] 	99875550
scalar barabasi_100nodes_network.node[32].core_layer 	slots_sent[face$o[4]->node[64]] 	100199797
scalar barabasi_100nodes_network.node[32].content_store 	p_hit[32] 	0.17280414410694
scalar barabasi_100nodes_network.node[32].content_store 	hits[32] 	112153
scalar barabasi_100nodes_network.node[32].content_store 	misses[32] 	536865
scalar barabasi_100nodes_network.node[32].content_store 	decision_yes[32] 	229571
scalar barabasi_100nodes_network.node[32].content_store 	decision_no[32] 	187056
scalar barabasi_100nodes_network.node[32].content_store 	decision_ratio[32] 	0.55102285737602
scalar barabasi_100nodes_network.node[32].proactive_component 	hdistance[32].proactive_component 	4.2352781208066
scalar barabasi_100nodes_network.node[32].proactive_component 	downloads[32].proactive_component 	224309
scalar barabasi_100nodes_network.node[32].proactive_component 	avg_time[32].proactive_component 	0
scalar barabasi_100nodes_network.node[33].core_layer 	interests[33] 	243623
scalar barabasi_100nodes_network.node[33].core_layer 	data[33] 	144661
scalar barabasi_100nodes_network.node[33].core_layer 	slots_sent[face$o[1]->client[33]] 	141130981
scalar barabasi_100nodes_network.node[33].core_layer 	slots_sent[face$o[2]->node[2]] 	0
scalar barabasi_100nodes_network.node[33].content_store 	p_hit[33] 	0.40620959433223
scalar barabasi_100nodes_network.node[33].content_store 	hits[33] 	98962
scalar barabasi_100nodes_network.node[33].content_store 	misses[33] 	144661
scalar barabasi_100nodes_network.node[33].content_store 	decision_yes[33] 	80571
scalar barabasi_100nodes_network.node[33].content_store 	decision_no[33] 	64090
scalar barabasi_100nodes_network.node[33].content_store 	decision_ratio[33] 	0.55696421288391
scalar barabasi_100nodes_network.node[33].proactive_component 	hdistance[33].proactive_component 	4.2346225777963
scalar barabasi_100nodes_network.node[33].proactive_component 	downloads[33].proactive_component 	76996
scalar barabasi_100nodes_network.node[33].proactive_component 	avg_time[33].proactive_component 	0
scalar barabasi_100nodes_network.node[34].core_layer 	interests[34] 	243506
scalar barabasi_100nodes_network.node[34].core_layer 	data[34] 	144860
scalar barabasi_100nodes_network.node[34].core_layer 	slots_sent[face$o[1]->client[34]] 	140576684
scalar barabasi_100nodes_network.node[34].core_layer 	slots_sent[face$o[2]->node[2]] 	0
scalar barabasi_100nodes_network.node[34].content_store 	p_hit[34] 	0.40510706101698
scalar barabasi_100nodes_network.node[34].content_store 	hits[34] 	98646
scalar barabasi_100nodes_network.node[34].content_store 	misses[34] 	144860
scalar barabasi_100nodes_network.node[34].content_store 	decision_yes[34] 	80583
scalar barabasi_100nodes_network.node[34].content_store 	decision_no[34] 	64277
scalar barabasi_100nodes_network.node[34].content_store 	decision_ratio[34] 	0.55628192737816
scalar barabasi_100nodes_network.node[34].proactive_component 	hdistance[34].proactive_component 	4.2355814463018
scalar barabasi_100nodes_network.node[34].proactive_component 	downloads[34].proactive_component 	77591
scalar barabasi_100nodes_network.node[34].proactive_component 	avg_time[34].proactive_component 	0
scalar barabasi_100nodes_network.node[35].core_layer 	interests[35] 	438979
scalar barabasi_100nodes_network.node[35].core_layer 	data[35] 	275899
scalar barabasi_100nodes_network.node[35].core_layer 	slots_sent[face$o[1]->client[35]] 	145246846
scalar barabasi_100nodes_network.node[35].core_layer 	slots_sent[face$o[2]->node[5]] 	0
scalar barabasi_100nodes_network.node[35].core_layer 	slots_sent[face$o[3]->node[50]] 	100663955
scalar barabasi_100nodes_network.node[35].content_store 	p_hit[35] 	0.23874262777946
scalar barabasi_100nodes_network.node[35].content_store 	hits[35] 	104803
scalar barabasi_100nodes_network.node[35].content_store 	misses[35] 	334176
scalar barabasi_100nodes_network.node[35].content_store 	decision_yes[35] 	156661
scalar barabasi_100nodes_network.node[35].content_store 	decision_no[35] 	119238
scalar barabasi_100nodes_network.node[35].content_store 	decision_ratio[35] 	0.56782010808303
scalar barabasi_100nodes_network.node[35].proactive_component 	hdistance[35].proactive_component 	5.7266421014432
scalar barabasi_100nodes_network.node[35].proactive_component 	downloads[35].proactive_component 	143292
scalar barabasi_100nodes_network.node[35].proactive_component 	avg_time[35].proactive_component 	0
scalar barabasi_100nodes_network.node[36].core_layer 	interests[36] 	447051
scalar barabasi_100nodes_network.node[36].core_layer 	data[36] 	282133
scalar barabasi_100nodes_network.node[36].core_layer 	slots_sent[face$o[1]->client[36]] 	140012587
scalar barabasi_100nodes_network.node[36].core_layer 	slots_sent[face$o[2]->node[2]] 	0
scalar barabasi_100nodes_network.node[36].core_layer 	slots_sent[face$o[3]->node[75]] 	100122570
[...]
scalar barabasi_100nodes_network.client[8] 	avg_time[8].real 	0
scalar barabasi_100nodes_network.client[9] 	hdistance[9].real 	2.1488476934437
scalar barabasi_100nodes_network.client[9] 	downloads[9].real 	180117
scalar barabasi_100nodes_network.client[9] 	avg_time[9].real 	0
scalar barabasi_100nodes_network.client[10] 	hdistance[10].real 	1.5097742527283
scalar barabasi_100nodes_network.client[10] 	downloads[10].real 	180423
scalar barabasi_100nodes_network.client[10] 	avg_time[10].real 	0
scalar barabasi_100nodes_network.client[11] 	hdistance[11].real 	1.7782611583422
scalar barabasi_100nodes_network.client[11] 	downloads[11].real 	180672
scalar barabasi_100nodes_network.client[11] 	avg_time[11].real 	0
scalar barabasi_100nodes_network.client[12] 	hdistance[12].real 	1.967294559432
scalar barabasi_100nodes_network.client[12] 	downloads[12].real 	180551
scalar barabasi_100nodes_network.client[12] 	avg_time[12].real 	0
scalar barabasi_100nodes_network.client[13] 	hdistance[13].real 	1.4991006543227
scalar barabasi_100nodes_network.client[13] 	downloads[13].real 	179575
scalar barabasi_100nodes_network.client[13] 	avg_time[13].real 	0
scalar barabasi_100nodes_network.client[14] 	hdistance[14].real 	1.6552062378427
scalar barabasi_100nodes_network.client[14] 	downloads[14].real 	180447
scalar barabasi_100nodes_network.client[14] 	avg_time[14].real 	0
scalar barabasi_100nodes_network.client[15] 	hdistance[15].real 	1.5554880070742
scalar barabasi_100nodes_network.client[15] 	downloads[15].real 	180940
scalar barabasi_100nodes_network.client[15] 	avg_time[15].real 	0
scalar barabasi_100nodes_network.client[16] 	hdistance[16].real 	1.7839796906838
scalar barabasi_100nodes_network.client[16] 	downloads[16].real 	179622
scalar barabasi_100nodes_network.client[16] 	avg_time[16].real 	0
scalar barabasi_100nodes_network.client[17] 	hdistance[17].real 	1.6627983456518
scalar barabasi_100nodes_network.client[17] 	downloads[17].real 	179406
scalar barabasi_100nodes_network.client[17] 	avg_time[17].real 	0
scalar barabasi_100nodes_network.client[18] 	hdistance[18].real 	1.7439580015206
scalar barabasi_100nodes_network.client[18] 	downloads[18].real 	180197
scalar barabasi_100nodes_network.client[18] 	avg_time[18].real 	0
scalar barabasi_100nodes_network.client[19] 	hdistance[19].real 	2.1310513691232
scalar barabasi_100nodes_network.client[19] 	downloads[19].real 	180517
scalar barabasi_100nodes_network.client[19] 	avg_time[19].real 	0
scalar barabasi_100nodes_network.client[20] 	hdistance[20].real 	1.9651040595166
scalar barabasi_100nodes_network.client[20] 	downloads[20].real 	179849
scalar barabasi_100nodes_network.client[20] 	avg_time[20].real 	0
scalar barabasi_100nodes_network.client[21] 	hdistance[21].real 	1.9208857238233
scalar barabasi_100nodes_network.client[21] 	downloads[21].real 	179740
scalar barabasi_100nodes_network.client[21] 	avg_time[21].real 	0
scalar barabasi_100nodes_network.client[22] 	hdistance[22].real 	1.8394052995751
scalar barabasi_100nodes_network.client[22] 	downloads[22].real 	179788
scalar barabasi_100nodes_network.client[22] 	avg_time[22].real 	0
scalar barabasi_100nodes_network.client[23] 	hdistance[23].real 	1.7711665137997
scalar barabasi_100nodes_network.client[23] 	downloads[23].real 	179895
scalar barabasi_100nodes_network.client[23] 	avg_time[23].real 	0
scalar barabasi_100nodes_network.client[24] 	hdistance[24].real 	2.1345465443466
scalar barabasi_100nodes_network.client[24] 	downloads[24].real 	180183
scalar barabasi_100nodes_network.client[24] 	avg_time[24].real 	0
scalar barabasi_100nodes_network.client[25] 	hdistance[25].real 	1.6912166241132
scalar barabasi_100nodes_network.client[25] 	downloads[25].real 	180557
scalar barabasi_100nodes_network.client[25] 	avg_time[25].real 	0
scalar barabasi_100nodes_network.client[26] 	hdistance[26].real 	1.7423685178374
scalar barabasi_100nodes_network.client[26] 	downloads[26].real 	179454
scalar barabasi_100nodes_network.client[26] 	avg_time[26].real 	0
scalar barabasi_100nodes_network.client[27] 	hdistance[27].real 	2.0182103017643
scalar barabasi_100nodes_network.client[27] 	downloads[27].real 	180008
scalar barabasi_100nodes_network.client[27] 	avg_time[27].real 	0
scalar barabasi_100nodes_network.client[28] 	hdistance[28].real 	1.8385291278831
scalar barabasi_100nodes_network.client[28] 	downloads[28].real 	180274
scalar barabasi_100nodes_network.client[28] 	avg_time[28].real 	0
scalar barabasi_100nodes_network.client[29] 	hdistance[29].real 	1.6559726280008
scalar barabasi_100nodes_network.client[29] 	downloads[29].real 	180038
scalar barabasi_100nodes_network.client[29] 	avg_time[29].real 	0
scalar barabasi_100nodes_network.client[30] 	hdistance[30].real 	2.0210900986311
scalar barabasi_100nodes_network.client[30] 	downloads[30].real 	180369
scalar barabasi_100nodes_network.client[30] 	avg_time[30].real 	0
scalar barabasi_100nodes_network.client[31] 	hdistance[31].real 	1.6630189267077
scalar barabasi_100nodes_network.client[31] 	downloads[31].real 	179746
scalar barabasi_100nodes_network.client[31] 	avg_time[31].real 	0
scalar barabasi_100nodes_network.client[32] 	hdistance[32].real 	1.7302126999773
scalar barabasi_100nodes_network.client[32] 	downloads[32].real 	180583
scalar barabasi_100nodes_network.client[32] 	avg_time[32].real 	0
scalar barabasi_100nodes_network.client[33] 	hdistance[33].real 	1.6475745406137
scalar barabasi_100nodes_network.client[33] 	downloads[33].real 	179533
scalar barabasi_100nodes_network.client[33] 	avg_time[33].real 	0
scalar barabasi_100nodes_network.client[34] 	hdistance[34].real 	1.6527403489391
scalar barabasi_100nodes_network.client[34] 	downloads[34].real 	179229
scalar barabasi_100nodes_network.client[34] 	avg_time[34].real 	0
scalar barabasi_100nodes_network.client[35] 	hdistance[35].real 	2.2007391827924
scalar barabasi_100nodes_network.client[35] 	downloads[35].real 	180199
scalar barabasi_100nodes_network.client[35] 	avg_time[35].real 	0
scalar barabasi_100nodes_network.client[36] 	hdistance[36].real 	1.6956318721025
scalar barabasi_100nodes_network.client[36] 	downloads[36].real 	179894
scalar barabasi_100nodes_network.client[36] 	avg_time[36].real 	0
scalar barabasi_100nodes_network.client[37] 	hdistance[37].real 	1.8355863006221
scalar barabasi_100nodes_network.client[37] 	downloads[37].real 	179541
scalar barabasi_100nodes_network.client[37] 	avg_time[37].real 	0
scalar barabasi_100nodes_network.client[38] 	hdistance[38].real 	1.9771302266429
scalar barabasi_100nodes_network.client[38] 	downloads[38].real 	180063
scalar barabasi_100nodes_network.client[38] 	avg_time[38].real 	0
scalar barabasi_100nodes_network.client[39] 	hdistance[39].real 	2.0042676311031
scalar barabasi_100nodes_network.client[39] 	downloads[39].real 	179725
scalar barabasi_100nodes_network.client[39] 	avg_time[39].real 	0
scalar barabasi_100nodes_network.client[40] 	hdistance[40].real 	1.7081808779207
scalar barabasi_100nodes_network.client[40] 	downloads[40].real 	179834
scalar barabasi_100nodes_network.client[40] 	avg_time[40].real 	0
scalar barabasi_100nodes_network.client[41] 	hdistance[41].real 	1.6506184015417
scalar barabasi_100nodes_network.client[41] 	downloads[41].real 	180061
scalar barabasi_100nodes_network.client[41] 	avg_time[41].real 	0
scalar barabasi_100nodes_network.client[42] 	hdistance[42].real 	1.6758315644414
scalar barabasi_100nodes_network.client[42] 	downloads[42].real 	179962
scalar barabasi_100nodes_network.client[42] 	avg_time[42].real 	0
scalar barabasi_100nodes_network.client[43] 	hdistance[43].real 	1.9531223067984
scalar barabasi_100nodes_network.client[43] 	downloads[43].real 	179851
scalar barabasi_100nodes_network.client[43] 	avg_time[43].real 	0
scalar barabasi_100nodes_network.client[44] 	hdistance[44].real 	1.8343860192971
scalar barabasi_100nodes_network.client[44] 	downloads[44].real 	180649
scalar barabasi_100nodes_network.client[44] 	avg_time[44].real 	0
scalar barabasi_100nodes_network.client[45] 	hdistance[45].real 	1.6462068773802
scalar barabasi_100nodes_network.client[45] 	downloads[45].real 	179865
scalar barabasi_100nodes_network.client[45] 	avg_time[45].real 	0
scalar barabasi_100nodes_network.client[46] 	hdistance[46].real 	1.7734775279961
scalar barabasi_100nodes_network.client[46] 	downloads[46].real 	179757
scalar barabasi_100nodes_network.client[46] 	avg_time[46].real 	0
scalar barabasi_100nodes_network.client[47] 	hdistance[47].real 	1.3404972608512
scalar barabasi_100nodes_network.client[47] 	downloads[47].real 	180348
scalar barabasi_100nodes_network.client[47] 	avg_time[47].real 	0
scalar barabasi_100nodes_network.client[48] 	hdistance[48].real 	1.6784770698334
scalar barabasi_100nodes_network.client[48] 	downloads[48].real 	179785
scalar barabasi_100nodes_network.client[48] 	avg_time[48].real 	0
scalar barabasi_100nodes_network.client[49] 	hdistance[49].real 	1.5710877569378
scalar barabasi_100nodes_network.client[49] 	downloads[49].real 	178983
scalar barabasi_100nodes_network.client[49] 	avg_time[49].real 	0
scalar barabasi_100nodes_network.client[50] 	hdistance[50].real 	2.4799445061043
scalar barabasi_100nodes_network.client[50] 	downloads[50].real 	180200
scalar barabasi_100nodes_network.client[50] 	avg_time[50].real 	0
scalar barabasi_100nodes_network.client[51] 	hdistance[51].real 	1.7994654926727
scalar barabasi_100nodes_network.client[51] 	downloads[51].real 	180353
scalar barabasi_100nodes_network.client[51] 	avg_time[51].real 	0
scalar barabasi_100nodes_network.client[52] 	hdistance[52].real 	1.977352767995
scalar barabasi_100nodes_network.client[52] 	downloads[52].real 	180022
scalar barabasi_100nodes_network.client[52] 	avg_time[52].real 	0
scalar barabasi_100nodes_network.client[53] 	hdistance[53].real 	1.9560920967992
scalar barabasi_100nodes_network.client[53] 	downloads[53].real 	180332
scalar barabasi_100nodes_network.client[53] 	avg_time[53].real 	0
scalar barabasi_100nodes_network.client[54] 	hdistance[54].real 	1.7174977465698
scalar barabasi_100nodes_network.client[54] 	downloads[54].real 	179726
scalar barabasi_100nodes_network.client[54] 	avg_time[54].real 	0
scalar barabasi_100nodes_network.client[55] 	hdistance[55].real 	1.5473952419199
scalar barabasi_100nodes_network.client[55] 	downloads[55].real 	180535
scalar barabasi_100nodes_network.client[55] 	avg_time[55].real 	0
scalar barabasi_100nodes_network.client[56] 	hdistance[56].real 	1.7034266944827
scalar barabasi_100nodes_network.client[56] 	downloads[56].real 	180232
scalar barabasi_100nodes_network.client[56] 	avg_time[56].real 	0
scalar barabasi_100nodes_network.client[57] 	hdistance[57].real 	2.1349185219697
scalar barabasi_100nodes_network.client[57] 	downloads[57].real 	180294
scalar barabasi_100nodes_network.client[57] 	avg_time[57].real 	0
scalar barabasi_100nodes_network.client[58] 	hdistance[58].real 	1.8828030159596
scalar barabasi_100nodes_network.client[58] 	downloads[58].real 	179578
scalar barabasi_100nodes_network.client[58] 	avg_time[58].real 	0
scalar barabasi_100nodes_network.client[59] 	hdistance[59].real 	1.650652724161
scalar barabasi_100nodes_network.client[59] 	downloads[59].real 	180551
scalar barabasi_100nodes_network.client[59] 	avg_time[59].real 	0
scalar barabasi_100nodes_network.client[60] 	hdistance[60].real 	2.2844213064567
scalar barabasi_100nodes_network.client[60] 	downloads[60].real 	179983
scalar barabasi_100nodes_network.client[60] 	avg_time[60].real 	0
scalar barabasi_100nodes_network.client[61] 	hdistance[61].real 	1.9618911826549
scalar barabasi_100nodes_network.client[61] 	downloads[61].real 	180247
scalar barabasi_100nodes_network.client[61] 	avg_time[61].real 	0
scalar barabasi_100nodes_network.client[62] 	hdistance[62].real 	1.7124348028305
scalar barabasi_100nodes_network.client[62] 	downloads[62].real 	180606
scalar barabasi_100nodes_network.client[62] 	avg_time[62].real 	0
scalar barabasi_100nodes_network.client[63] 	hdistance[63].real 	2.3125672219034
scalar barabasi_100nodes_network.client[63] 	downloads[63].real 	179443
scalar barabasi_100nodes_network.client[63] 	avg_time[63].real 	0
scalar barabasi_100nodes_network.client[64] 	hdistance[64].real 	1.9616246171633
scalar barabasi_100nodes_network.client[64] 	downloads[64].real 	179907
scalar barabasi_100nodes_network.client[64] 	avg_time[64].real 	0
scalar barabasi_100nodes_network.client[65] 	hdistance[65].real 	2.0133609166842
scalar barabasi_100nodes_network.client[65] 	downloads[65].real 	180302
scalar barabasi_100nodes_network.client[65] 	avg_time[65].real 	0
scalar barabasi_100nodes_network.client[66] 	hdistance[66].real 	1.9734999137802
scalar barabasi_100nodes_network.client[66] 	downloads[66].real 	179773
scalar barabasi_100nodes_network.client[66] 	avg_time[66].real 	0
scalar barabasi_100nodes_network.client[67] 	hdistance[67].real 	1.692458173314
scalar barabasi_100nodes_network.client[67] 	downloads[67].real 	180447
scalar barabasi_100nodes_network.client[67] 	avg_time[67].real 	0
scalar barabasi_100nodes_network.client[68] 	hdistance[68].real 	1.9542523590276
scalar barabasi_100nodes_network.client[68] 	downloads[68].real 	180053
scalar barabasi_100nodes_network.client[68] 	avg_time[68].real 	0
scalar barabasi_100nodes_network.client[69] 	hdistance[69].real 	1.5138850303926
scalar barabasi_100nodes_network.client[69] 	downloads[69].real 	179978
scalar barabasi_100nodes_network.client[69] 	avg_time[69].real 	0
scalar barabasi_100nodes_network.client[70] 	hdistance[70].real 	2.3173724091821
scalar barabasi_100nodes_network.client[70] 	downloads[70].real 	179480
scalar barabasi_100nodes_network.client[70] 	avg_time[70].real 	0
scalar barabasi_100nodes_network.client[71] 	hdistance[71].real 	1.7877619930913
scalar barabasi_100nodes_network.client[71] 	downloads[71].real 	180062
scalar barabasi_100nodes_network.client[71] 	avg_time[71].real 	0
scalar barabasi_100nodes_network.client[72] 	hdistance[72].real 	1.9632315783044
scalar barabasi_100nodes_network.client[72] 	downloads[72].real 	180073
scalar barabasi_100nodes_network.client[72] 	avg_time[72].real 	0
scalar barabasi_100nodes_network.client[73] 	hdistance[73].real 	1.8912761250996
scalar barabasi_100nodes_network.client[73] 	downloads[73].real 	179473
scalar barabasi_100nodes_network.client[73] 	avg_time[73].real 	0
scalar barabasi_100nodes_network.client[74] 	hdistance[74].real 	1.8374889801893
scalar barabasi_100nodes_network.client[74] 	downloads[74].real 	180357
scalar barabasi_100nodes_network.client[74] 	avg_time[74].real 	0
scalar barabasi_100nodes_network.client[75] 	hdistance[75].real 	1.9692006300124
scalar barabasi_100nodes_network.client[75] 	downloads[75].real 	179679
scalar barabasi_100nodes_network.client[75] 	avg_time[75].real 	0
scalar barabasi_100nodes_network.client[76] 	hdistance[76].real 	2.1487353026161
scalar barabasi_100nodes_network.client[76] 	downloads[76].real 	179964
scalar barabasi_100nodes_network.client[76] 	avg_time[76].real 	0
scalar barabasi_100nodes_network.client[77] 	hdistance[77].real 	2.0194764827993
scalar barabasi_100nodes_network.client[77] 	downloads[77].real 	180166
scalar barabasi_100nodes_network.client[77] 	avg_time[77].real 	0
scalar barabasi_100nodes_network.client[78] 	hdistance[78].real 	1.7883726991909
scalar barabasi_100nodes_network.client[78] 	downloads[78].real 	180317
scalar barabasi_100nodes_network.client[78] 	avg_time[78].real 	0
scalar barabasi_100nodes_network.client[79] 	hdistance[79].real 	1.6505189926874
scalar barabasi_100nodes_network.client[79] 	downloads[79].real 	179964
scalar barabasi_100nodes_network.client[79] 	avg_time[79].real 	0
scalar barabasi_100nodes_network.client[80] 	hdistance[80].real 	2.3011921147272
scalar barabasi_100nodes_network.client[80] 	downloads[80].real 	180184
scalar barabasi_100nodes_network.client[80] 	avg_time[80].real 	0
scalar barabasi_100nodes_network.client[81] 	hdistance[81].real 	1.6259962428999
scalar barabasi_100nodes_network.client[81] 	downloads[81].real 	179926
scalar barabasi_100nodes_network.client[81] 	avg_time[81].real 	0
scalar barabasi_100nodes_network.client[82] 	hdistance[82].real 	1.9324922260736
scalar barabasi_100nodes_network.client[82] 	downloads[82].real 	179446
scalar barabasi_100nodes_network.client[82] 	avg_time[82].real 	0
scalar barabasi_100nodes_network.client[83] 	hdistance[83].real 	1.8006373898218
scalar barabasi_100nodes_network.client[83] 	downloads[83].real 	179482
scalar barabasi_100nodes_network.client[83] 	avg_time[83].real 	0
scalar barabasi_100nodes_network.client[84] 	hdistance[84].real 	2.0347194499889
scalar barabasi_100nodes_network.client[84] 	downloads[84].real 	180360
scalar barabasi_100nodes_network.client[84] 	avg_time[84].real 	0
scalar barabasi_100nodes_network.client[85] 	hdistance[85].real 	1.9708561727436
scalar barabasi_100nodes_network.client[85] 	downloads[85].real 	180244
scalar barabasi_100nodes_network.client[85] 	avg_time[85].real 	0
scalar barabasi_100nodes_network.client[86] 	hdistance[86].real 	1.8023946770132
scalar barabasi_100nodes_network.client[86] 	downloads[86].real 	179899
scalar barabasi_100nodes_network.client[86] 	avg_time[86].real 	0
scalar barabasi_100nodes_network.client[87] 	hdistance[87].real 	2.0401260469174
scalar barabasi_100nodes_network.client[87] 	downloads[87].real 	179933
scalar barabasi_100nodes_network.client[87] 	avg_time[87].real 	0
scalar barabasi_100nodes_network.client[88] 	hdistance[88].real 	2.2908227848101
scalar barabasi_100nodes_network.client[88] 	downloads[88].real 	180120
scalar barabasi_100nodes_network.client[88] 	avg_time[88].real 	0
scalar barabasi_100nodes_network.client[89] 	hdistance[89].real 	1.9882167192953
scalar barabasi_100nodes_network.client[89] 	downloads[89].real 	180510
scalar barabasi_100nodes_network.client[89] 	avg_time[89].real 	0
scalar barabasi_100nodes_network.client[90] 	hdistance[90].real 	1.5688971347946
scalar barabasi_100nodes_network.client[90] 	downloads[90].real 	180022
scalar barabasi_100nodes_network.client[90] 	avg_time[90].real 	0
scalar barabasi_100nodes_network.client[91] 	hdistance[91].real 	1.9603490746083
scalar barabasi_100nodes_network.client[91] 	downloads[91].real 	180248
scalar barabasi_100nodes_network.client[91] 	avg_time[91].real 	0
scalar barabasi_100nodes_network.client[92] 	hdistance[92].real 	2.3276826420549
scalar barabasi_100nodes_network.client[92] 	downloads[92].real 	179860
scalar barabasi_100nodes_network.client[92] 	avg_time[92].real 	0
scalar barabasi_100nodes_network.client[93] 	hdistance[93].real 	1.8409347803088
scalar barabasi_100nodes_network.client[93] 	downloads[93].real 	179593
scalar barabasi_100nodes_network.client[93] 	avg_time[93].real 	0
scalar barabasi_100nodes_network.client[94] 	hdistance[94].real 	2.1374907547977
scalar barabasi_100nodes_network.client[94] 	downloads[94].real 	179823
scalar barabasi_100nodes_network.client[94] 	avg_time[94].real 	0
scalar barabasi_100nodes_network.client[95] 	hdistance[95].real 	1.9150669122706
scalar barabasi_100nodes_network.client[95] 	downloads[95].real 	180236
scalar barabasi_100nodes_network.client[95] 	avg_time[95].real 	0
scalar barabasi_100nodes_network.client[96] 	hdistance[96].real 	2.299037417754
scalar barabasi_100nodes_network.client[96] 	downloads[96].real 	180556
scalar barabasi_100nodes_network.client[96] 	avg_time[96].real 	0
scalar barabasi_100nodes_network.client[97] 	hdistance[97].real 	1.9967358474882
scalar barabasi_100nodes_network.client[97] 	downloads[97].real 	180445
scalar barabasi_100nodes_network.client[97] 	avg_time[97].real 	0
scalar barabasi_100nodes_network.client[98] 	hdistance[98].real 	2.2415717482658
scalar barabasi_100nodes_network.client[98] 	downloads[98].real 	179189
scalar barabasi_100nodes_network.client[98] 	avg_time[98].real 	0
scalar barabasi_100nodes_network.client[99] 	hdistance[99].real 	2.3052305136369
scalar barabasi_100nodes_network.client[99] 	downloads[99].real 	180575
scalar barabasi_100nodes_network.client[99] 	avg_time[99].real 	0
