version 2
run General-6-20150324-10:39:20-15360
attr D lce
attr F nrr
attr R lru
attr a 1
attr configname General
attr csize 1e3
attr ctlg 1e5
attr datetime 20150324-10:39:20
attr experiment General
attr inifile omnetpp.ini
attr iterationvars "$rep=20, $net=cost_scenario, $lambda=100, $a=1, $ctlg=1e5, $F=nrr, $ttl=10, $D=lce, $R=lru, $csize=1e3, $window=60, $variance=0.05, $mytime=9000000, $kappa=1, $priceratiovalue=2, $splits=0_0.5_0.5, $pricebits=0"
attr iterationvars2 "$rep=20, $net=cost_scenario, $lambda=100, $a=1, $ctlg=1e5, $F=nrr, $ttl=10, $D=lce, $R=lru, $csize=1e3, $window=60, $variance=0.05, $mytime=9000000, $kappa=1, $priceratiovalue=2, $splits=0_0.5_0.5, $pricebits=0, $repetition=0"
attr kappa 1
attr lambda 100
attr measurement "$rep=20, $net=cost_scenario, $lambda=100, $a=1, $ctlg=1e5, $F=nrr, $ttl=10, $D=lce, $R=lru, $csize=1e3, $window=60, $variance=0.05, $mytime=9000000, $kappa=1, $priceratiovalue=2, $splits=0_0.5_0.5, $pricebits=0"
attr mytime 9000000
attr net cost_scenario
attr network networks.${net=cost_scenario}_network
attr pricebits 0
attr priceratiovalue 2
attr processid 15360
attr rep 20
attr repetition 0
attr replication #0
attr resultdir results
attr runnumber 6
attr seedset 20
attr splits 0_0.5_0.5
attr ttl 10
attr variance 0.05
attr window 60

scalar . 	a 	1
scalar . 	csize 	1e3
scalar . 	ctlg 	1e5
scalar . 	kappa 	1
scalar . 	lambda 	100
scalar . 	mytime 	9000000
scalar . 	pricebits 	0
scalar . 	priceratiovalue 	2
scalar . 	rep 	20
scalar . 	ttl 	10
scalar . 	variance 	0.05
scalar . 	window 	60
scalar cost_scenario_network.content_distribution 	repo-0 	1
scalar cost_scenario_network.content_distribution 	repo-1 	2
scalar cost_scenario_network.content_distribution 	repo-2 	3
scalar cost_scenario_network.content_distribution 	client-0 	0
scalar cost_scenario_network.content_distribution 	repo-0_card 	0
scalar cost_scenario_network.content_distribution 	repo-0_price 	1
scalar cost_scenario_network.content_distribution 	repo-1_card 	49965
scalar cost_scenario_network.content_distribution 	repo-1_price 	2
scalar cost_scenario_network.content_distribution 	repo-2_card 	50035
scalar cost_scenario_network.content_distribution 	repo-2_price 	0
scalar cost_scenario_network.statistics 	repo_popularity[0] 	0
scalar cost_scenario_network.statistics 	repo_popularity[1] 	0.48412340685623
scalar cost_scenario_network.statistics 	repo_popularity[2] 	0.51587659314377
scalar cost_scenario_network.statistics 	stabilization_time 	77.2
scalar cost_scenario_network.statistics 	p_hit 	0.33885998582176
scalar cost_scenario_network.statistics 	interests 	336099806.75
scalar cost_scenario_network.statistics 	data 	111104515.5
scalar cost_scenario_network.statistics 	hdistance 	0.98761636194909
scalar cost_scenario_network.statistics 	avg_time 	0
scalar cost_scenario_network.statistics 	downloads 	899981165
scalar cost_scenario_network.statistics 	total_cost 	448246828
scalar cost_scenario_network.statistics 	total_replicas 	100000
scalar cost_scenario_network.statistics 	inner_hit 	0.50619181902546
scalar cost_scenario_network.statistics 	interests_sent 	899981165
scalar cost_scenario_network.node[0].core_layer 	interests[0] 	899981165
scalar cost_scenario_network.node[0].core_layer 	data[0] 	444418062
scalar cost_scenario_network.node[0].core_layer 	repo_int[0] 	444418062
scalar cost_scenario_network.node[0].content_store 	p_hit[0] 	0.50619181902546
scalar cost_scenario_network.node[0].content_store 	hits[0] 	455563103
scalar cost_scenario_network.node[0].content_store 	misses[0] 	444418062
scalar cost_scenario_network.node[0].content_store 	decision_yes[0] 	444418062
scalar cost_scenario_network.node[0].content_store 	decision_no[0] 	0
scalar cost_scenario_network.node[0].content_store 	decision_ratio[0] 	1
scalar cost_scenario_network.node[0].content_store 	cache_value[0] 	5.8101627339558
scalar cost_scenario_network.node[0].content_store 	average_price_of_cache[0] 	1.006
scalar cost_scenario_network.node[1].core_layer 	interests[1] 	0
scalar cost_scenario_network.node[1].core_layer 	data[1] 	0
scalar cost_scenario_network.node[1].content_store 	p_hit[1] 	-nan
scalar cost_scenario_network.node[1].content_store 	hits[1] 	0
scalar cost_scenario_network.node[1].content_store 	misses[1] 	0
scalar cost_scenario_network.node[1].content_store 	decision_yes[1] 	0
scalar cost_scenario_network.node[1].content_store 	decision_no[1] 	0
scalar cost_scenario_network.node[1].content_store 	decision_ratio[1] 	0
scalar cost_scenario_network.node[1].content_store 	cache_value[1] 	1.4669196372493e-316
scalar cost_scenario_network.node[1].content_store 	average_price_of_cache[1] 	-nan
scalar cost_scenario_network.node[2].core_layer 	interests[2] 	224123414
scalar cost_scenario_network.node[2].core_layer 	repo_load[2] 	224123414
scalar cost_scenario_network.node[2].core_layer 	data[2] 	0
scalar cost_scenario_network.node[2].content_store 	p_hit[2] 	0
scalar cost_scenario_network.node[2].content_store 	hits[2] 	0
scalar cost_scenario_network.node[2].content_store 	misses[2] 	224123414
scalar cost_scenario_network.node[2].content_store 	decision_yes[2] 	0
scalar cost_scenario_network.node[2].content_store 	decision_no[2] 	224123414
scalar cost_scenario_network.node[2].content_store 	decision_ratio[2] 	0
scalar cost_scenario_network.node[2].content_store 	cache_value[2] 	1.4670753667409e-316
scalar cost_scenario_network.node[2].content_store 	average_price_of_cache[2] 	-nan
scalar cost_scenario_network.node[3].core_layer 	interests[3] 	220294648
scalar cost_scenario_network.node[3].core_layer 	repo_load[3] 	220294648
scalar cost_scenario_network.node[3].core_layer 	data[3] 	0
scalar cost_scenario_network.node[3].content_store 	p_hit[3] 	0
scalar cost_scenario_network.node[3].content_store 	hits[3] 	0
scalar cost_scenario_network.node[3].content_store 	misses[3] 	220294648
scalar cost_scenario_network.node[3].content_store 	decision_yes[3] 	0
scalar cost_scenario_network.node[3].content_store 	decision_no[3] 	220294648
scalar cost_scenario_network.node[3].content_store 	decision_ratio[3] 	0
scalar cost_scenario_network.node[3].content_store 	cache_value[3] 	1.4672326772425e-316
scalar cost_scenario_network.node[3].content_store 	average_price_of_cache[3] 	-nan
scalar cost_scenario_network.client[0] 	hdistance[0] 	0.98761636194909
scalar cost_scenario_network.client[0] 	downloads[0] 	899981165
scalar cost_scenario_network.client[0] 	avg_time[0] 	0
scalar cost_scenario_network.client[0] 	interests_sent[0] 	899981165
