version 2
run General-2065-20140506-00:50:00-6260
attr D costprobprodcorr0.01
attr F nrr
attr R lru
attr a 1
attr configname General
attr csize 1e3
attr ctlg 1e5
attr datetime 20140506-00:50:00
attr experiment General
attr inifile omnetpp.ini
attr iterationvars "$net=one_cache_scenario_3_links, $rep=11, $priceratiovalue=10, $weights=0_0.5_0.5, $a=1, $ctlg=1e5, $F=nrr, $ttl=1000, $D=costprobprodcorr0.01, $xi=0.5, $R=lru, $csize=1e3"
attr iterationvars2 "$net=one_cache_scenario_3_links, $rep=11, $priceratiovalue=10, $weights=0_0.5_0.5, $a=1, $ctlg=1e5, $F=nrr, $ttl=1000, $D=costprobprodcorr0.01, $xi=0.5, $R=lru, $csize=1e3, $repetition=0"
attr measurement "$net=one_cache_scenario_3_links, $rep=11, $priceratiovalue=10, $weights=0_0.5_0.5, $a=1, $ctlg=1e5, $F=nrr, $ttl=1000, $D=costprobprodcorr0.01, $xi=0.5, $R=lru, $csize=1e3"
attr net one_cache_scenario_3_links
attr network networks.${net=one_cache_scenario_3_links}_network
attr priceratiovalue 10
attr processid 6260
attr rep 11
attr repetition 0
attr replication #0
attr resultdir results
attr runnumber 2065
attr seedset 11
attr ttl 1000
attr weights 0_0.5_0.5
attr xi 0.5

scalar . 	a 	1
scalar . 	csize 	1e3
scalar . 	ctlg 	1e5
scalar . 	priceratiovalue 	10
scalar . 	rep 	11
scalar . 	ttl 	1000
scalar . 	xi 	0.5
scalar one_cache_scenario_3_links_network.content_distribution 	repo-0 	4
scalar one_cache_scenario_3_links_network.content_distribution 	repo-1 	5
scalar one_cache_scenario_3_links_network.content_distribution 	repo-2 	6
scalar one_cache_scenario_3_links_network.content_distribution 	client-0 	0
scalar one_cache_scenario_3_links_network.content_distribution 	repo-0_card 	0
scalar one_cache_scenario_3_links_network.content_distribution 	repo-1_card 	49804
scalar one_cache_scenario_3_links_network.content_distribution 	repo-2_card 	50196
scalar one_cache_scenario_3_links_network.statistics 	p_hit 	0.27536834260162
scalar one_cache_scenario_3_links_network.statistics 	interests 	49837.142857143
scalar one_cache_scenario_3_links_network.statistics 	data 	24075.714285714
scalar one_cache_scenario_3_links_network.statistics 	hdistance 	0.93456440969334
scalar one_cache_scenario_3_links_network.statistics 	avg_time 	0
scalar one_cache_scenario_3_links_network.statistics 	downloads 	180330
scalar one_cache_scenario_3_links_network.statistics 	total_cost 	430306
scalar one_cache_scenario_3_links_network.statistics 	total_replicas 	100000
scalar one_cache_scenario_3_links_network.statistics 	interests_sent 	180330
scalar one_cache_scenario_3_links_network.node[0].core_layer 	interests[0] 	180330
scalar one_cache_scenario_3_links_network.node[0].core_layer 	data[0] 	84265
scalar one_cache_scenario_3_links_network.node[0].core_layer 	repo_int[0] 	84265
scalar one_cache_scenario_3_links_network.node[0].content_store 	p_hit[0] 	0.53271779515333
scalar one_cache_scenario_3_links_network.node[0].content_store 	hits[0] 	96065
scalar one_cache_scenario_3_links_network.node[0].content_store 	misses[0] 	84265
scalar one_cache_scenario_3_links_network.node[0].content_store 	decision_yes[0] 	813
scalar one_cache_scenario_3_links_network.node[0].content_store 	decision_no[0] 	83452
scalar one_cache_scenario_3_links_network.node[0].content_store 	decision_ratio[0] 	0.0096481338634071
scalar one_cache_scenario_3_links_network.node[0].content_store 	correction_factor[0] 	0.0048050614670408
scalar one_cache_scenario_3_links_network.node[0].content_store 	xi[0] 	0.5
scalar one_cache_scenario_3_links_network.node[1].core_layer 	interests[1] 	0
scalar one_cache_scenario_3_links_network.node[1].core_layer 	data[1] 	0
scalar one_cache_scenario_3_links_network.node[1].content_store 	p_hit[1] 	-nan
scalar one_cache_scenario_3_links_network.node[1].content_store 	hits[1] 	0
scalar one_cache_scenario_3_links_network.node[1].content_store 	misses[1] 	0
scalar one_cache_scenario_3_links_network.node[1].content_store 	decision_yes[1] 	0
scalar one_cache_scenario_3_links_network.node[1].content_store 	decision_no[1] 	0
scalar one_cache_scenario_3_links_network.node[1].content_store 	decision_ratio[1] 	0
scalar one_cache_scenario_3_links_network.node[2].core_layer 	interests[2] 	45816
scalar one_cache_scenario_3_links_network.node[2].core_layer 	data[2] 	45816
scalar one_cache_scenario_3_links_network.node[2].content_store 	p_hit[2] 	0
scalar one_cache_scenario_3_links_network.node[2].content_store 	hits[2] 	0
scalar one_cache_scenario_3_links_network.node[2].content_store 	misses[2] 	45816
scalar one_cache_scenario_3_links_network.node[2].content_store 	decision_yes[2] 	0
scalar one_cache_scenario_3_links_network.node[2].content_store 	decision_no[2] 	45816
scalar one_cache_scenario_3_links_network.node[2].content_store 	decision_ratio[2] 	0
scalar one_cache_scenario_3_links_network.node[3].core_layer 	interests[3] 	38449
scalar one_cache_scenario_3_links_network.node[3].core_layer 	data[3] 	38449
scalar one_cache_scenario_3_links_network.node[3].content_store 	p_hit[3] 	0
scalar one_cache_scenario_3_links_network.node[3].content_store 	hits[3] 	0
scalar one_cache_scenario_3_links_network.node[3].content_store 	misses[3] 	38449
scalar one_cache_scenario_3_links_network.node[3].content_store 	decision_yes[3] 	0
scalar one_cache_scenario_3_links_network.node[3].content_store 	decision_no[3] 	38449
scalar one_cache_scenario_3_links_network.node[3].content_store 	decision_ratio[3] 	0
scalar one_cache_scenario_3_links_network.node[4].core_layer 	interests[4] 	0
scalar one_cache_scenario_3_links_network.node[4].core_layer 	data[4] 	0
scalar one_cache_scenario_3_links_network.node[4].content_store 	p_hit[4] 	-nan
scalar one_cache_scenario_3_links_network.node[4].content_store 	hits[4] 	0
scalar one_cache_scenario_3_links_network.node[4].content_store 	misses[4] 	0
scalar one_cache_scenario_3_links_network.node[4].content_store 	decision_yes[4] 	0
scalar one_cache_scenario_3_links_network.node[4].content_store 	decision_no[4] 	0
scalar one_cache_scenario_3_links_network.node[4].content_store 	decision_ratio[4] 	0
scalar one_cache_scenario_3_links_network.node[5].core_layer 	interests[5] 	45816
scalar one_cache_scenario_3_links_network.node[5].core_layer 	repo_load[5] 	45816
scalar one_cache_scenario_3_links_network.node[5].core_layer 	data[5] 	0
scalar one_cache_scenario_3_links_network.node[5].content_store 	p_hit[5] 	0
scalar one_cache_scenario_3_links_network.node[5].content_store 	hits[5] 	0
scalar one_cache_scenario_3_links_network.node[5].content_store 	misses[5] 	45816
scalar one_cache_scenario_3_links_network.node[5].content_store 	decision_yes[5] 	0
scalar one_cache_scenario_3_links_network.node[5].content_store 	decision_no[5] 	45816
scalar one_cache_scenario_3_links_network.node[5].content_store 	decision_ratio[5] 	0
scalar one_cache_scenario_3_links_network.node[6].core_layer 	interests[6] 	38449
scalar one_cache_scenario_3_links_network.node[6].core_layer 	repo_load[6] 	38449
scalar one_cache_scenario_3_links_network.node[6].core_layer 	data[6] 	0
scalar one_cache_scenario_3_links_network.node[6].content_store 	p_hit[6] 	0
scalar one_cache_scenario_3_links_network.node[6].content_store 	hits[6] 	0
scalar one_cache_scenario_3_links_network.node[6].content_store 	misses[6] 	38449
scalar one_cache_scenario_3_links_network.node[6].content_store 	decision_yes[6] 	0
scalar one_cache_scenario_3_links_network.node[6].content_store 	decision_no[6] 	38449
scalar one_cache_scenario_3_links_network.node[6].content_store 	decision_ratio[6] 	0
scalar one_cache_scenario_3_links_network.client[0] 	hdistance[0] 	0.93456440969334
scalar one_cache_scenario_3_links_network.client[0] 	downloads[0] 	180330
scalar one_cache_scenario_3_links_network.client[0] 	avg_time[0] 	0
scalar one_cache_scenario_3_links_network.client[0] 	interests_sent[0] 	180330
