version 2
run General-23-20150311-18:59:43-28978
attr D fix0.1
attr F spr
attr R lru
attr a 1
attr configname General
attr datetime 20150311-18:59:43
attr experiment General
attr inifile omnetpp.ini
attr iterationvars "$net=abilene, $rep=0, $a=1, $F=spr, $ttl=1000, $D=fix0.1, $R=lru"
attr iterationvars2 "$net=abilene, $rep=0, $a=1, $F=spr, $ttl=1000, $D=fix0.1, $R=lru, $repetition=0"
attr measurement "$net=abilene, $rep=0, $a=1, $F=spr, $ttl=1000, $D=fix0.1, $R=lru"
attr net abilene
attr network networks.${net=abilene}_network
attr processid 28978
attr rep 0
attr repetition 0
attr replication #0
attr resultdir results
attr runnumber 23
attr seedset 0
attr ttl 1000

scalar . 	a 	1
scalar . 	rep 	0
scalar . 	ttl 	1000
scalar abilene_network.content_distribution 	repo-0 	5
scalar abilene_network.content_distribution 	client-0 	8
scalar abilene_network.content_distribution 	client-1 	9
scalar abilene_network.content_distribution 	client-2 	5
scalar abilene_network.content_distribution 	client-3 	0
scalar abilene_network.content_distribution 	client-4 	1
scalar abilene_network.content_distribution 	client-5 	7
scalar abilene_network.content_distribution 	client-6 	6
scalar abilene_network.content_distribution 	client-7 	2
scalar abilene_network.content_distribution 	client-8 	4
scalar abilene_network.content_distribution 	client-9 	10
scalar abilene_network.content_distribution 	client-10 	3
scalar abilene_network.content_distribution 	repo-0_card 	10000
scalar abilene_network.content_distribution 	repo-0_price 	0
scalar abilene_network.statistics 	stabilization_time 	1494.7
scalar abilene_network.statistics 	p_hit 	0.21210355448264
scalar abilene_network.statistics 	interests 	4368.3636363636
scalar abilene_network.statistics 	data 	2564.7272727273
scalar abilene_network.statistics 	hdistance 	1.9035563079498
scalar abilene_network.statistics 	avg_time 	0.008083800977
scalar abilene_network.statistics 	downloads 	19839
scalar abilene_network.statistics 	total_cost 	0
scalar abilene_network.statistics 	total_replicas 	10000
scalar abilene_network.statistics 	inner_hit 	0.51373557134936
scalar abilene_network.node[0].core_layer 	interests[0] 	1841
scalar abilene_network.node[0].core_layer 	data[0] 	1028
scalar abilene_network.node[0].core_layer 	repo_int[0] 	9647
scalar abilene_network.node[0].content_store 	p_hit[0] 	0.44160782183596
scalar abilene_network.node[0].content_store 	hits[0] 	813
scalar abilene_network.node[0].content_store 	misses[0] 	1028
scalar abilene_network.node[0].content_store 	decision_yes[0] 	97
scalar abilene_network.node[0].content_store 	decision_no[0] 	931
scalar abilene_network.node[0].content_store 	decision_ratio[0] 	0.094357976653696
scalar abilene_network.node[1].core_layer 	interests[1] 	3891
scalar abilene_network.node[1].core_layer 	data[1] 	2927
scalar abilene_network.node[1].content_store 	p_hit[1] 	0.24775122076587
scalar abilene_network.node[1].content_store 	hits[1] 	964
scalar abilene_network.node[1].content_store 	misses[1] 	2927
scalar abilene_network.node[1].content_store 	decision_yes[1] 	310
scalar abilene_network.node[1].content_store 	decision_no[1] 	2617
scalar abilene_network.node[1].content_store 	decision_ratio[1] 	0.10591048855483
scalar abilene_network.node[2].core_layer 	interests[2] 	4682
scalar abilene_network.node[2].core_layer 	data[2] 	3677
scalar abilene_network.node[2].content_store 	p_hit[2] 	0.21465185818026
scalar abilene_network.node[2].content_store 	hits[2] 	1005
scalar abilene_network.node[2].content_store 	misses[2] 	3677
scalar abilene_network.node[2].content_store 	decision_yes[2] 	335
scalar abilene_network.node[2].content_store 	decision_no[2] 	3342
scalar abilene_network.node[2].content_store 	decision_ratio[2] 	0.091106880609192
scalar abilene_network.node[3].core_layer 	interests[3] 	5484
scalar abilene_network.node[3].core_layer 	data[3] 	4597
scalar abilene_network.node[3].content_store 	p_hit[3] 	0.16174325309993
scalar abilene_network.node[3].content_store 	hits[3] 	887
scalar abilene_network.node[3].content_store 	misses[3] 	4597
scalar abilene_network.node[3].content_store 	decision_yes[3] 	463
scalar abilene_network.node[3].content_store 	decision_no[3] 	4134
scalar abilene_network.node[3].content_store 	decision_ratio[3] 	0.10071785947357
scalar abilene_network.node[4].core_layer 	interests[4] 	6396
scalar abilene_network.node[4].core_layer 	data[4] 	5426
scalar abilene_network.node[4].content_store 	p_hit[4] 	0.1515009380863
scalar abilene_network.node[4].content_store 	hits[4] 	969
scalar abilene_network.node[4].content_store 	misses[4] 	5427
scalar abilene_network.node[4].content_store 	decision_yes[4] 	585
scalar abilene_network.node[4].content_store 	decision_no[4] 	4841
scalar abilene_network.node[4].content_store 	decision_ratio[4] 	0.10781422779211
scalar abilene_network.node[5].core_layer 	interests[5] 	10895
scalar abilene_network.node[5].core_layer 	repo_load[5] 	9647
scalar abilene_network.node[5].core_layer 	data[5] 	0
scalar abilene_network.node[5].content_store 	p_hit[5] 	0.1145479577788
scalar abilene_network.node[5].content_store 	hits[5] 	1248
scalar abilene_network.node[5].content_store 	misses[5] 	9647
scalar abilene_network.node[5].content_store 	decision_yes[5] 	1004
scalar abilene_network.node[5].content_store 	decision_no[5] 	8643
scalar abilene_network.node[5].content_store 	decision_ratio[5] 	0.10407380532808
scalar abilene_network.node[6].core_layer 	interests[6] 	4624
scalar abilene_network.node[6].core_layer 	data[6] 	3665
scalar abilene_network.node[6].content_store 	p_hit[6] 	0.20739619377163
scalar abilene_network.node[6].content_store 	hits[6] 	959
scalar abilene_network.node[6].content_store 	misses[6] 	3665
scalar abilene_network.node[6].content_store 	decision_yes[6] 	360
scalar abilene_network.node[6].content_store 	decision_no[6] 	3305
scalar abilene_network.node[6].content_store 	decision_ratio[6] 	0.098226466575716
scalar abilene_network.node[7].core_layer 	interests[7] 	3729
scalar abilene_network.node[7].core_layer 	data[7] 	2824
scalar abilene_network.node[7].content_store 	p_hit[7] 	0.242692410834
scalar abilene_network.node[7].content_store 	hits[7] 	905
scalar abilene_network.node[7].content_store 	misses[7] 	2824
scalar abilene_network.node[7].content_store 	decision_yes[7] 	272
scalar abilene_network.node[7].content_store 	decision_no[7] 	2552
scalar abilene_network.node[7].content_store 	decision_ratio[7] 	0.096317280453258
scalar abilene_network.node[8].core_layer 	interests[8] 	2786
scalar abilene_network.node[8].core_layer 	data[8] 	1944
scalar abilene_network.node[8].content_store 	p_hit[8] 	0.30222541277818
scalar abilene_network.node[8].content_store 	hits[8] 	842
scalar abilene_network.node[8].content_store 	misses[8] 	1944
scalar abilene_network.node[8].content_store 	decision_yes[8] 	181
scalar abilene_network.node[8].content_store 	decision_no[8] 	1763
scalar abilene_network.node[8].content_store 	decision_ratio[8] 	0.093106995884774
scalar abilene_network.node[9].core_layer 	interests[9] 	1911
scalar abilene_network.node[9].core_layer 	data[9] 	1062
scalar abilene_network.node[9].content_store 	p_hit[9] 	0.44427001569859
scalar abilene_network.node[9].content_store 	hits[9] 	849
scalar abilene_network.node[9].content_store 	misses[9] 	1062
scalar abilene_network.node[9].content_store 	decision_yes[9] 	105
scalar abilene_network.node[9].content_store 	decision_no[9] 	957
scalar abilene_network.node[9].content_store 	decision_ratio[9] 	0.098870056497175
scalar abilene_network.node[10].core_layer 	interests[10] 	1813
scalar abilene_network.node[10].core_layer 	data[10] 	1062
scalar abilene_network.node[10].content_store 	p_hit[10] 	0.4142305570877
scalar abilene_network.node[10].content_store 	hits[10] 	751
scalar abilene_network.node[10].content_store 	misses[10] 	1062
scalar abilene_network.node[10].content_store 	decision_yes[10] 	87
scalar abilene_network.node[10].content_store 	decision_no[10] 	975
scalar abilene_network.node[10].content_store 	decision_ratio[10] 	0.081920903954802
scalar abilene_network.client[0] 	hdistance[0] 	2.8011950027159
scalar abilene_network.client[0] 	downloads[0] 	1841
scalar abilene_network.client[0] 	avg_time[0] 	0.015386941412
scalar abilene_network.client[1] 	hdistance[1] 	2.4541921154914
scalar abilene_network.client[1] 	downloads[1] 	1801
scalar abilene_network.client[1] 	avg_time[1] 	0.010281298827
scalar abilene_network.client[2] 	hdistance[2] 	2.0529914529915
scalar abilene_network.client[2] 	downloads[2] 	1755
scalar abilene_network.client[2] 	avg_time[2] 	0.007465595
scalar abilene_network.client[3] 	hdistance[3] 	1.6889872717211
scalar abilene_network.client[3] 	downloads[3] 	1807
scalar abilene_network.client[3] 	avg_time[3] 	0.005316834086
scalar abilene_network.client[4] 	hdistance[4] 	1.2235817575083
scalar abilene_network.client[4] 	downloads[4] 	1798
scalar abilene_network.client[4] 	avg_time[4] 	0.005005424895
scalar abilene_network.client[5] 	hdistance[5] 	0.66962305986696
scalar abilene_network.client[5] 	downloads[5] 	1804
scalar abilene_network.client[5] 	avg_time[5] 	0
scalar abilene_network.client[6] 	hdistance[6] 	1.1538888888889
scalar abilene_network.client[6] 	downloads[6] 	1800
scalar abilene_network.client[6] 	avg_time[6] 	0.00133099955
scalar abilene_network.client[7] 	hdistance[7] 	1.6022408963585
scalar abilene_network.client[7] 	downloads[7] 	1785
scalar abilene_network.client[7] 	avg_time[7] 	0.004624380512
scalar abilene_network.client[8] 	hdistance[8] 	1.9593967517401
scalar abilene_network.client[8] 	downloads[8] 	1724
scalar abilene_network.client[8] 	avg_time[8] 	0.008241623701
scalar abilene_network.client[9] 	hdistance[9] 	2.4003139717426
scalar abilene_network.client[9] 	downloads[9] 	1911
scalar abilene_network.client[9] 	avg_time[9] 	0.015662061272
scalar abilene_network.client[10] 	hdistance[10] 	2.9327082184225
scalar abilene_network.client[10] 	downloads[10] 	1813
scalar abilene_network.client[10] 	avg_time[10] 	0.015606651498
