version 2
run General-0-20150720-10:13:27-12389
attr C 1e2
attr D lce
attr F spr
attr R lru
attr a 1
attr brates 1
attr configname General
attr ctlg 1e4
attr datetime 20150720-10:13:27
attr experiment General
attr inifile omnetpp.ini
attr iterationvars "$net=abilene_nodelay, $rep=0, $lambda=100, $a=1, $ctlg=1e4, $brates=1, $F=spr, $ttl=1000, $D=lce, $R=lru, $C=1e2, $window=60, $variance=0.05, $mytime=1800"
attr iterationvars2 "$net=abilene_nodelay, $rep=0, $lambda=100, $a=1, $ctlg=1e4, $brates=1, $F=spr, $ttl=1000, $D=lce, $R=lru, $C=1e2, $window=60, $variance=0.05, $mytime=1800, $repetition=0"
attr lambda 100
attr measurement "$net=abilene_nodelay, $rep=0, $lambda=100, $a=1, $ctlg=1e4, $brates=1, $F=spr, $ttl=1000, $D=lce, $R=lru, $C=1e2, $window=60, $variance=0.05, $mytime=1800"
attr mytime 1800
attr net abilene_nodelay
attr network networks.${net=abilene_nodelay}_network
attr processid 12389
attr rep 0
attr repetition 0
attr replication #0
attr resultdir results
attr runnumber 0
attr seedset 0
attr ttl 1000
attr variance 0.05
attr window 60

scalar . 	C 	1e2
scalar . 	a 	1
scalar . 	brates 	1
scalar . 	ctlg 	1e4
scalar . 	lambda 	100
scalar . 	mytime 	1800
scalar . 	rep 	0
scalar . 	ttl 	1000
scalar . 	variance 	0.05
scalar . 	window 	60
scalar abilene_nodelay_network.content_distribution 	repo-0 	5
scalar abilene_nodelay_network.content_distribution 	repo-1 	8
scalar abilene_nodelay_network.content_distribution 	repo-2 	9
scalar abilene_nodelay_network.content_distribution 	repo-3 	0
scalar abilene_nodelay_network.content_distribution 	repo-4 	1
scalar abilene_nodelay_network.content_distribution 	repo-5 	7
scalar abilene_nodelay_network.content_distribution 	repo-6 	6
scalar abilene_nodelay_network.content_distribution 	repo-7 	2
scalar abilene_nodelay_network.content_distribution 	repo-8 	4
scalar abilene_nodelay_network.content_distribution 	repo-9 	10
scalar abilene_nodelay_network.content_distribution 	repo-10 	3
scalar abilene_nodelay_network.content_distribution 	client-0 	10
scalar abilene_nodelay_network.content_distribution 	client-1 	9
scalar abilene_nodelay_network.content_distribution 	client-2 	8
scalar abilene_nodelay_network.content_distribution 	client-3 	7
scalar abilene_nodelay_network.content_distribution 	client-4 	3
scalar abilene_nodelay_network.content_distribution 	client-5 	6
scalar abilene_nodelay_network.content_distribution 	client-6 	5
scalar abilene_nodelay_network.content_distribution 	client-7 	1
scalar abilene_nodelay_network.content_distribution 	client-8 	4
scalar abilene_nodelay_network.content_distribution 	client-9 	0
scalar abilene_nodelay_network.content_distribution 	client-10 	2
scalar abilene_nodelay_network.content_distribution 	repo-0_card 	930
scalar abilene_nodelay_network.content_distribution 	repo-0_price 	0
scalar abilene_nodelay_network.content_distribution 	repo-1_card 	833
scalar abilene_nodelay_network.content_distribution 	repo-1_price 	0
scalar abilene_nodelay_network.content_distribution 	repo-2_card 	911
scalar abilene_nodelay_network.content_distribution 	repo-2_price 	0
scalar abilene_nodelay_network.content_distribution 	repo-3_card 	918
scalar abilene_nodelay_network.content_distribution 	repo-3_price 	0
scalar abilene_nodelay_network.content_distribution 	repo-4_card 	885
scalar abilene_nodelay_network.content_distribution 	repo-4_price 	0
scalar abilene_nodelay_network.content_distribution 	repo-5_card 	973
scalar abilene_nodelay_network.content_distribution 	repo-5_price 	0
scalar abilene_nodelay_network.content_distribution 	repo-6_card 	915
scalar abilene_nodelay_network.content_distribution 	repo-6_price 	0
scalar abilene_nodelay_network.content_distribution 	repo-7_card 	937
scalar abilene_nodelay_network.content_distribution 	repo-7_price 	0
scalar abilene_nodelay_network.content_distribution 	repo-8_card 	890
scalar abilene_nodelay_network.content_distribution 	repo-8_price 	0
scalar abilene_nodelay_network.content_distribution 	repo-9_card 	891
scalar abilene_nodelay_network.content_distribution 	repo-9_price 	0
scalar abilene_nodelay_network.content_distribution 	repo-10_card 	917
scalar abilene_nodelay_network.content_distribution 	repo-10_price 	0
scalar abilene_nodelay_network.statistics 	stabilization_time 	61.6
scalar abilene_nodelay_network.statistics 	p_hit 	0.16508383423718
scalar abilene_nodelay_network.statistics 	interests 	421616.63636364
scalar abilene_nodelay_network.statistics 	data 	241858.63636364
scalar abilene_nodelay_network.statistics 	hdistance 	1.9581572561498
scalar abilene_nodelay_network.statistics 	avg_time 	0
scalar abilene_nodelay_network.statistics 	downloads 	1977338
scalar abilene_nodelay_network.statistics 	total_cost 	0
scalar abilene_nodelay_network.statistics 	total_replicas 	10000
scalar abilene_nodelay_network.statistics 	"representations_downloaded 1:" 	0
scalar abilene_nodelay_network.statistics 	"slots_per_representation 100:" 	0
scalar abilene_nodelay_network.statistics 	inner_hit 	0.38719885017129
scalar abilene_nodelay_network.statistics 	execution_time 	49
scalar abilene_nodelay_network.node[0].core_layer 	interests[0] 	265594
scalar abilene_nodelay_network.node[0].core_layer 	repo_load[0] 	98043
scalar abilene_nodelay_network.node[0].core_layer 	data[0] 	106278
scalar abilene_nodelay_network.node[0].core_layer 	slots_sent[face$o[1]->client[0]] 	17958300
scalar abilene_nodelay_network.node[0].core_layer 	slots_sent[face$o[2]->node[1]] 	6717300
scalar abilene_nodelay_network.node[0].core_layer 	slots_sent[face$o[3]->node[10]] 	1883800
scalar abilene_nodelay_network.node[0].content_store 	p_hit[0] 	0.23070174778045
scalar abilene_nodelay_network.node[0].content_store 	hits[0] 	61273
scalar abilene_nodelay_network.node[0].content_store 	misses[0] 	204321
scalar abilene_nodelay_network.node[0].content_store 	decision_yes[0] 	106278
scalar abilene_nodelay_network.node[0].content_store 	decision_no[0] 	98043
scalar abilene_nodelay_network.node[0].content_store 	decision_ratio[0] 	0.52015211358598
scalar abilene_nodelay_network.node[1].core_layer 	interests[1] 	502418
scalar abilene_nodelay_network.node[1].core_layer 	repo_load[1] 	115575
scalar abilene_nodelay_network.node[1].core_layer 	data[1] 	314571
scalar abilene_nodelay_network.node[1].core_layer 	slots_sent[face$o[1]->client[1]] 	17951300
scalar abilene_nodelay_network.node[1].core_layer 	slots_sent[face$o[2]->node[0]] 	8435500
scalar abilene_nodelay_network.node[1].core_layer 	slots_sent[face$o[3]->node[10]] 	6794100
scalar abilene_nodelay_network.node[1].core_layer 	slots_sent[face$o[4]->node[2]] 	17060900
scalar abilene_nodelay_network.node[1].content_store 	p_hit[1] 	0.14384834938239
scalar abilene_nodelay_network.node[1].content_store 	hits[1] 	72272
scalar abilene_nodelay_network.node[1].content_store 	misses[1] 	430146
scalar abilene_nodelay_network.node[1].content_store 	decision_yes[1] 	314571
scalar abilene_nodelay_network.node[1].content_store 	decision_no[1] 	115575
scalar abilene_nodelay_network.node[1].content_store 	decision_ratio[1] 	0.73131215912737
scalar abilene_nodelay_network.node[2].core_layer 	interests[2] 	688136
scalar abilene_nodelay_network.node[2].core_layer 	repo_load[2] 	153271
scalar abilene_nodelay_network.node[2].core_layer 	data[2] 	455507
scalar abilene_nodelay_network.node[2].core_layer 	slots_sent[face$o[1]->client[2]] 	17976500
scalar abilene_nodelay_network.node[2].core_layer 	slots_sent[face$o[2]->node[1]] 	18705300
scalar abilene_nodelay_network.node[2].core_layer 	slots_sent[face$o[3]->node[3]] 	22968100
scalar abilene_nodelay_network.node[2].core_layer 	slots_sent[face$o[4]->node[8]] 	9163700
scalar abilene_nodelay_network.node[2].content_store 	p_hit[2] 	0.11532313379913
scalar abilene_nodelay_network.node[2].content_store 	hits[2] 	79358
scalar abilene_nodelay_network.node[2].content_store 	misses[2] 	608778
scalar abilene_nodelay_network.node[2].content_store 	decision_yes[2] 	455507
scalar abilene_nodelay_network.node[2].content_store 	decision_no[2] 	153271
scalar abilene_nodelay_network.node[2].content_store 	decision_ratio[2] 	0.74823170351097
scalar abilene_nodelay_network.node[3].core_layer 	interests[3] 	631377
scalar abilene_nodelay_network.node[3].core_layer 	repo_load[3] 	107358
scalar abilene_nodelay_network.node[3].core_layer 	data[3] 	437582
scalar abilene_nodelay_network.node[3].core_layer 	slots_sent[face$o[1]->client[3]] 	17952900
scalar abilene_nodelay_network.node[3].core_layer 	slots_sent[face$o[2]->node[2]] 	21185800
scalar abilene_nodelay_network.node[3].core_layer 	slots_sent[face$o[3]->node[4]] 	13806700
scalar abilene_nodelay_network.node[3].core_layer 	slots_sent[face$o[4]->node[7]] 	10192300
scalar abilene_nodelay_network.node[3].content_store 	p_hit[3] 	0.13690235786226
scalar abilene_nodelay_network.node[3].content_store 	hits[3] 	86437
scalar abilene_nodelay_network.node[3].content_store 	misses[3] 	544940
scalar abilene_nodelay_network.node[3].content_store 	decision_yes[3] 	437582
scalar abilene_nodelay_network.node[3].content_store 	decision_no[3] 	107358
scalar abilene_nodelay_network.node[3].content_store 	decision_ratio[3] 	0.80299115498954
scalar abilene_nodelay_network.node[4].core_layer 	interests[4] 	377674
scalar abilene_nodelay_network.node[4].core_layer 	repo_load[4] 	98921
scalar abilene_nodelay_network.node[4].core_layer 	data[4] 	205480
scalar abilene_nodelay_network.node[4].core_layer 	slots_sent[face$o[1]->client[4]] 	17960000
scalar abilene_nodelay_network.node[4].core_layer 	slots_sent[face$o[2]->node[3]] 	12249200
scalar abilene_nodelay_network.node[4].core_layer 	slots_sent[face$o[3]->node[5]] 	7558200
scalar abilene_nodelay_network.node[4].content_store 	p_hit[4] 	0.19401123720457
scalar abilene_nodelay_network.node[4].content_store 	hits[4] 	73273
scalar abilene_nodelay_network.node[4].content_store 	misses[4] 	304401
scalar abilene_nodelay_network.node[4].content_store 	decision_yes[4] 	205480
scalar abilene_nodelay_network.node[4].content_store 	decision_no[4] 	98921
scalar abilene_nodelay_network.node[4].content_store 	decision_ratio[4] 	0.67503063393353
scalar abilene_nodelay_network.node[5].core_layer 	interests[5] 	296928
scalar abilene_nodelay_network.node[5].core_layer 	repo_load[5] 	125789
scalar abilene_nodelay_network.node[5].core_layer 	data[5] 	123622
scalar abilene_nodelay_network.node[5].core_layer 	slots_sent[face$o[1]->client[5]] 	17987000
scalar abilene_nodelay_network.node[5].core_layer 	slots_sent[face$o[2]->node[4]] 	6741300
scalar abilene_nodelay_network.node[5].core_layer 	slots_sent[face$o[3]->node[6]] 	4964500
scalar abilene_nodelay_network.node[5].content_store 	p_hit[5] 	0.16002869382477
scalar abilene_nodelay_network.node[5].content_store 	hits[5] 	47517
scalar abilene_nodelay_network.node[5].content_store 	misses[5] 	249411
scalar abilene_nodelay_network.node[5].content_store 	decision_yes[5] 	123622
scalar abilene_nodelay_network.node[5].content_store 	decision_no[5] 	125789
scalar abilene_nodelay_network.node[5].content_store 	decision_ratio[5] 	0.4956557649823
scalar abilene_nodelay_network.node[6].core_layer 	interests[6] 	331919
scalar abilene_nodelay_network.node[6].core_layer 	repo_load[6] 	102033
scalar abilene_nodelay_network.node[6].core_layer 	data[6] 	164582
scalar abilene_nodelay_network.node[6].core_layer 	slots_sent[face$o[1]->client[6]] 	18039500
scalar abilene_nodelay_network.node[6].core_layer 	slots_sent[face$o[2]->node[5]] 	4804000
scalar abilene_nodelay_network.node[6].core_layer 	slots_sent[face$o[3]->node[7]] 	10348400
scalar abilene_nodelay_network.node[6].content_store 	p_hit[6] 	0.19674679665822
scalar abilene_nodelay_network.node[6].content_store 	hits[6] 	65304
scalar abilene_nodelay_network.node[6].content_store 	misses[6] 	266615
scalar abilene_nodelay_network.node[6].content_store 	decision_yes[6] 	164582
scalar abilene_nodelay_network.node[6].content_store 	decision_no[6] 	102033
scalar abilene_nodelay_network.node[6].content_store 	decision_ratio[6] 	0.61730210228232
scalar abilene_nodelay_network.node[7].core_layer 	interests[7] 	460162
scalar abilene_nodelay_network.node[7].core_layer 	repo_load[7] 	100055
scalar abilene_nodelay_network.node[7].core_layer 	data[7] 	282829
scalar abilene_nodelay_network.node[7].core_layer 	slots_sent[face$o[1]->client[7]] 	17972500
scalar abilene_nodelay_network.node[7].core_layer 	slots_sent[face$o[2]->node[3]] 	8540900
scalar abilene_nodelay_network.node[7].core_layer 	slots_sent[face$o[3]->node[6]] 	11493700
scalar abilene_nodelay_network.node[7].core_layer 	slots_sent[face$o[4]->node[8]] 	8009100
scalar abilene_nodelay_network.node[7].content_store 	p_hit[7] 	0.16793650931628
scalar abilene_nodelay_network.node[7].content_store 	hits[7] 	77278
scalar abilene_nodelay_network.node[7].content_store 	misses[7] 	382884
scalar abilene_nodelay_network.node[7].content_store 	decision_yes[7] 	282829
scalar abilene_nodelay_network.node[7].content_store 	decision_no[7] 	100055
scalar abilene_nodelay_network.node[7].content_store 	decision_ratio[7] 	0.73868064479059
scalar abilene_nodelay_network.node[8].core_layer 	interests[8] 	433172
scalar abilene_nodelay_network.node[8].core_layer 	repo_load[8] 	89925
scalar abilene_nodelay_network.node[8].core_layer 	data[8] 	265522
scalar abilene_nodelay_network.node[8].core_layer 	slots_sent[face$o[1]->client[8]] 	17934000
scalar abilene_nodelay_network.node[8].core_layer 	slots_sent[face$o[2]->node[2]] 	7304000
scalar abilene_nodelay_network.node[8].core_layer 	slots_sent[face$o[3]->node[7]] 	7742200
scalar abilene_nodelay_network.node[8].core_layer 	slots_sent[face$o[4]->node[9]] 	10337000
scalar abilene_nodelay_network.node[8].content_store 	p_hit[8] 	0.17943218859945
scalar abilene_nodelay_network.node[8].content_store 	hits[8] 	77725
scalar abilene_nodelay_network.node[8].content_store 	misses[8] 	355447
scalar abilene_nodelay_network.node[8].content_store 	decision_yes[8] 	265522
scalar abilene_nodelay_network.node[8].content_store 	decision_no[8] 	89925
scalar abilene_nodelay_network.node[8].content_store 	decision_ratio[8] 	0.74700869609253
scalar abilene_nodelay_network.node[9].core_layer 	interests[9] 	330485
scalar abilene_nodelay_network.node[9].core_layer 	repo_load[9] 	105429
scalar abilene_nodelay_network.node[9].core_layer 	data[9] 	160811
scalar abilene_nodelay_network.node[9].core_layer 	slots_sent[face$o[1]->client[9]] 	17980900
scalar abilene_nodelay_network.node[9].core_layer 	slots_sent[face$o[2]->node[10]] 	5688200
scalar abilene_nodelay_network.node[9].core_layer 	slots_sent[face$o[3]->node[8]] 	9379400
scalar abilene_nodelay_network.node[9].content_store 	p_hit[9] 	0.19439611480097
scalar abilene_nodelay_network.node[9].content_store 	hits[9] 	64245
scalar abilene_nodelay_network.node[9].content_store 	misses[9] 	266240
scalar abilene_nodelay_network.node[9].content_store 	decision_yes[9] 	160811
scalar abilene_nodelay_network.node[9].content_store 	decision_no[9] 	105429
scalar abilene_nodelay_network.node[9].content_store 	decision_ratio[9] 	0.60400766225962
scalar abilene_nodelay_network.node[10].core_layer 	interests[10] 	319918
scalar abilene_nodelay_network.node[10].core_layer 	repo_load[10] 	115316
scalar abilene_nodelay_network.node[10].core_layer 	data[10] 	143661
scalar abilene_nodelay_network.node[10].core_layer 	slots_sent[face$o[1]->client[10]] 	18020900
scalar abilene_nodelay_network.node[10].core_layer 	slots_sent[face$o[2]->node[0]] 	2192300
scalar abilene_nodelay_network.node[10].core_layer 	slots_sent[face$o[3]->node[1]] 	6034500
scalar abilene_nodelay_network.node[10].core_layer 	slots_sent[face$o[4]->node[9]] 	5744100
scalar abilene_nodelay_network.node[10].content_store 	p_hit[10] 	0.19048943791847
scalar abilene_nodelay_network.node[10].content_store 	hits[10] 	60941
scalar abilene_nodelay_network.node[10].content_store 	misses[10] 	258977
scalar abilene_nodelay_network.node[10].content_store 	decision_yes[10] 	143661
scalar abilene_nodelay_network.node[10].content_store 	decision_no[10] 	115316
scalar abilene_nodelay_network.node[10].content_store 	decision_ratio[10] 	0.55472493696351
scalar abilene_nodelay_network.client[0] 	hdistance[0].real 	2.1720597161201
scalar abilene_nodelay_network.client[0] 	downloads[0].real 	179583
scalar abilene_nodelay_network.client[0] 	avg_time[0].real 	0
scalar abilene_nodelay_network.client[1] 	hdistance[1].real 	1.9682641368592
scalar abilene_nodelay_network.client[1] 	downloads[1].real 	179513
scalar abilene_nodelay_network.client[1] 	avg_time[1].real 	0
scalar abilene_nodelay_network.client[2] 	hdistance[2].real 	1.7388590660028
scalar abilene_nodelay_network.client[2] 	downloads[2].real 	179765
scalar abilene_nodelay_network.client[2] 	avg_time[2].real 	0
scalar abilene_nodelay_network.client[3] 	hdistance[3].real 	1.7890758596104
scalar abilene_nodelay_network.client[3] 	downloads[3].real 	179529
scalar abilene_nodelay_network.client[3] 	avg_time[3].real 	0
scalar abilene_nodelay_network.client[4] 	hdistance[4].real 	2.0379788418708
scalar abilene_nodelay_network.client[4] 	downloads[4].real 	179600
scalar abilene_nodelay_network.client[4] 	avg_time[4].real 	0
scalar abilene_nodelay_network.client[5] 	hdistance[5].real 	2.2327125145939
scalar abilene_nodelay_network.client[5] 	downloads[5].real 	179870
scalar abilene_nodelay_network.client[5] 	avg_time[5].real 	0
scalar abilene_nodelay_network.client[6] 	hdistance[6].real 	2.0701793286953
scalar abilene_nodelay_network.client[6] 	downloads[6].real 	180395
scalar abilene_nodelay_network.client[6] 	avg_time[6].real 	0
scalar abilene_nodelay_network.client[7] 	hdistance[7].real 	1.8035721240785
scalar abilene_nodelay_network.client[7] 	downloads[7].real 	179725
scalar abilene_nodelay_network.client[7] 	avg_time[7].real 	0
scalar abilene_nodelay_network.client[8] 	hdistance[8].real 	1.7380227500836
scalar abilene_nodelay_network.client[8] 	downloads[8].real 	179340
scalar abilene_nodelay_network.client[8] 	avg_time[8].real 	0
scalar abilene_nodelay_network.client[9] 	hdistance[9].real 	1.9467212430968
scalar abilene_nodelay_network.client[9] 	downloads[9].real 	179809
scalar abilene_nodelay_network.client[9] 	avg_time[9].real 	0
scalar abilene_nodelay_network.client[10] 	hdistance[10].real 	2.0422842366363
scalar abilene_nodelay_network.client[10] 	downloads[10].real 	180209
scalar abilene_nodelay_network.client[10] 	avg_time[10].real 	0
