version 2
run General-12-20140908-16:53:15-16857
attr D costprobprodcorr0.01
attr F nrr
attr R lru
attr a 1
attr configname General
attr csize 1e3
attr ctlg 1e5
attr datetime 20140908-16:53:15
attr experiment General
attr inifile omnetpp.ini
attr iterationvars "$net=level3_cost, $rep=20, $priceratiovalue=10, $weights=0.333_0.333_0.334, $lambda=100, $a=1, $ctlg=1e5, $F=nrr, $ttl=10, $D=costprobprodcorr0.01, $xi=1, $R=lru, $csize=1e3, $pricebits=0, $window=60, $variance=0.05, $mytime=1800"
attr iterationvars2 "$net=level3_cost, $rep=20, $priceratiovalue=10, $weights=0.333_0.333_0.334, $lambda=100, $a=1, $ctlg=1e5, $F=nrr, $ttl=10, $D=costprobprodcorr0.01, $xi=1, $R=lru, $csize=1e3, $pricebits=0, $window=60, $variance=0.05, $mytime=1800, $repetition=0"
attr lambda 100
attr measurement "$net=level3_cost, $rep=20, $priceratiovalue=10, $weights=0.333_0.333_0.334, $lambda=100, $a=1, $ctlg=1e5, $F=nrr, $ttl=10, $D=costprobprodcorr0.01, $xi=1, $R=lru, $csize=1e3, $pricebits=0, $window=60, $variance=0.05, $mytime=1800"
attr mytime 1800
attr net level3_cost
attr network networks.${net=level3_cost,tiger_cost,dtelecom_cost}_network
attr pricebits 0
attr priceratiovalue 10
attr processid 16857
attr rep 20
attr repetition 0
attr replication #0
attr resultdir results
attr runnumber 12
attr seedset 20
attr ttl 10
attr variance 0.05
attr weights 0.333_0.333_0.334
attr window 60
attr xi 1

scalar . 	a 	1
scalar . 	csize 	1e3
scalar . 	ctlg 	1e5
scalar . 	lambda 	100
scalar . 	mytime 	1800
scalar . 	pricebits 	0
scalar . 	priceratiovalue 	10
scalar . 	rep 	20
scalar . 	ttl 	10
scalar . 	variance 	0.05
scalar . 	window 	60
scalar . 	xi 	1
scalar level3_cost_network.content_distribution 	repo-0 	35
scalar level3_cost_network.content_distribution 	repo-1 	18
scalar level3_cost_network.content_distribution 	repo-2 	34
scalar level3_cost_network.content_distribution 	client-0 	34
scalar level3_cost_network.content_distribution 	client-1 	42
scalar level3_cost_network.content_distribution 	client-2 	1
scalar level3_cost_network.content_distribution 	repo-0_card 	33323
scalar level3_cost_network.content_distribution 	repo-0_price 	0
scalar level3_cost_network.content_distribution 	repo-1_card 	33294
scalar level3_cost_network.content_distribution 	repo-1_price 	1
scalar level3_cost_network.content_distribution 	repo-2_card 	33383
scalar level3_cost_network.content_distribution 	repo-2_price 	10
scalar level3_cost_network.statistics 	repo_popularity[0] 	0.38848298633525
scalar level3_cost_network.statistics 	repo_popularity[1] 	0.2885169773074
scalar level3_cost_network.statistics 	repo_popularity[2] 	0.32300003635736
scalar level3_cost_network.statistics 	stabilization_time 	36060
scalar level3_cost_network.statistics 	p_hit 	0.08180215650557
scalar level3_cost_network.statistics 	interests 	31052.652173913
scalar level3_cost_network.statistics 	data 	19321.413043478
scalar level3_cost_network.statistics 	hdistance 	2.5097738754977
scalar level3_cost_network.statistics 	avg_time 	0.054129202735
scalar level3_cost_network.statistics 	downloads 	513971
scalar level3_cost_network.statistics 	total_cost 	1161576
scalar level3_cost_network.statistics 	total_replicas 	100000
scalar level3_cost_network.statistics 	inner_hit 	0.22884559634688
scalar level3_cost_network.statistics 	interests_sent 	539641
scalar level3_cost_network.node[0].core_layer 	interests[0] 	0
scalar level3_cost_network.node[0].core_layer 	data[0] 	0
scalar level3_cost_network.node[0].core_layer 	repo_int[0] 	396351
scalar level3_cost_network.node[0].content_store 	p_hit[0] 	-nan
scalar level3_cost_network.node[0].content_store 	hits[0] 	0
scalar level3_cost_network.node[0].content_store 	misses[0] 	0
scalar level3_cost_network.node[0].content_store 	decision_yes[0] 	0
scalar level3_cost_network.node[0].content_store 	decision_no[0] 	0
scalar level3_cost_network.node[0].content_store 	decision_ratio[0] 	0
scalar level3_cost_network.node[0].content_store 	correction_factor[0] 	0.0027225701061802
scalar level3_cost_network.node[0].content_store 	xi[0] 	1
scalar level3_cost_network.node[1].core_layer 	interests[1] 	181936
scalar level3_cost_network.node[1].core_layer 	data[1] 	167506
scalar level3_cost_network.node[1].content_store 	p_hit[1] 	0.021551534605576
scalar level3_cost_network.node[1].content_store 	hits[1] 	3921
scalar level3_cost_network.node[1].content_store 	misses[1] 	178015
scalar level3_cost_network.node[1].content_store 	decision_yes[1] 	932
scalar level3_cost_network.node[1].content_store 	decision_no[1] 	166574
scalar level3_cost_network.node[1].content_store 	decision_ratio[1] 	0.0055639797977386
scalar level3_cost_network.node[1].content_store 	correction_factor[1] 	0.0027225701061802
scalar level3_cost_network.node[1].content_store 	xi[1] 	1
scalar level3_cost_network.node[2].core_layer 	interests[2] 	69249
scalar level3_cost_network.node[2].core_layer 	data[2] 	56150
scalar level3_cost_network.node[2].content_store 	p_hit[2] 	0.18917240682176
scalar level3_cost_network.node[2].content_store 	hits[2] 	13100
scalar level3_cost_network.node[2].content_store 	misses[2] 	56149
scalar level3_cost_network.node[2].content_store 	decision_yes[2] 	80
scalar level3_cost_network.node[2].content_store 	decision_no[2] 	56069
scalar level3_cost_network.node[2].content_store 	decision_ratio[2] 	0.001424780494755
scalar level3_cost_network.node[2].content_store 	correction_factor[2] 	0.0027225701061802
scalar level3_cost_network.node[2].content_store 	xi[2] 	1
scalar level3_cost_network.node[3].core_layer 	interests[3] 	114269
scalar level3_cost_network.node[3].core_layer 	data[3] 	108303
scalar level3_cost_network.node[3].content_store 	p_hit[3] 	0.051562541021624
scalar level3_cost_network.node[3].content_store 	hits[3] 	5892
scalar level3_cost_network.node[3].content_store 	misses[3] 	108377
scalar level3_cost_network.node[3].content_store 	decision_yes[3] 	924
scalar level3_cost_network.node[3].content_store 	decision_no[3] 	107379
scalar level3_cost_network.node[3].content_store 	decision_ratio[3] 	0.0085316196227251
scalar level3_cost_network.node[3].content_store 	correction_factor[3] 	0.0027225701061802
scalar level3_cost_network.node[3].content_store 	xi[3] 	1
scalar level3_cost_network.node[4].core_layer 	interests[4] 	0
scalar level3_cost_network.node[4].core_layer 	data[4] 	0
scalar level3_cost_network.node[4].content_store 	p_hit[4] 	-nan
scalar level3_cost_network.node[4].content_store 	hits[4] 	0
scalar level3_cost_network.node[4].content_store 	misses[4] 	0
scalar level3_cost_network.node[4].content_store 	decision_yes[4] 	0
scalar level3_cost_network.node[4].content_store 	decision_no[4] 	0
scalar level3_cost_network.node[4].content_store 	decision_ratio[4] 	0
scalar level3_cost_network.node[4].content_store 	correction_factor[4] 	0.0027225701061802
scalar level3_cost_network.node[4].content_store 	xi[4] 	1
scalar level3_cost_network.node[5].core_layer 	interests[5] 	0
scalar level3_cost_network.node[5].core_layer 	data[5] 	0
scalar level3_cost_network.node[5].content_store 	p_hit[5] 	-nan
scalar level3_cost_network.node[5].content_store 	hits[5] 	0
scalar level3_cost_network.node[5].content_store 	misses[5] 	0
scalar level3_cost_network.node[5].content_store 	decision_yes[5] 	0
scalar level3_cost_network.node[5].content_store 	decision_no[5] 	0
scalar level3_cost_network.node[5].content_store 	decision_ratio[5] 	0
scalar level3_cost_network.node[5].content_store 	correction_factor[5] 	0.0027225701061802
scalar level3_cost_network.node[5].content_store 	xi[5] 	1
scalar level3_cost_network.node[6].core_layer 	interests[6] 	0
scalar level3_cost_network.node[6].core_layer 	data[6] 	0
scalar level3_cost_network.node[6].content_store 	p_hit[6] 	-nan
scalar level3_cost_network.node[6].content_store 	hits[6] 	0
scalar level3_cost_network.node[6].content_store 	misses[6] 	0
scalar level3_cost_network.node[6].content_store 	decision_yes[6] 	0
scalar level3_cost_network.node[6].content_store 	decision_no[6] 	0
scalar level3_cost_network.node[6].content_store 	decision_ratio[6] 	0
scalar level3_cost_network.node[6].content_store 	correction_factor[6] 	0.0027225701061802
scalar level3_cost_network.node[6].content_store 	xi[6] 	1
scalar level3_cost_network.node[7].core_layer 	interests[7] 	173389
scalar level3_cost_network.node[7].core_layer 	data[7] 	167323
scalar level3_cost_network.node[7].content_store 	p_hit[7] 	0.030965055453345
scalar level3_cost_network.node[7].content_store 	hits[7] 	5369
scalar level3_cost_network.node[7].content_store 	misses[7] 	168020
scalar level3_cost_network.node[7].content_store 	decision_yes[7] 	864
scalar level3_cost_network.node[7].content_store 	decision_no[7] 	166459
scalar level3_cost_network.node[7].content_store 	decision_ratio[7] 	0.0051636654853188
scalar level3_cost_network.node[7].content_store 	correction_factor[7] 	0.0027225701061802
scalar level3_cost_network.node[7].content_store 	xi[7] 	1
scalar level3_cost_network.node[8].core_layer 	interests[8] 	0
scalar level3_cost_network.node[8].core_layer 	data[8] 	0
scalar level3_cost_network.node[8].content_store 	p_hit[8] 	-nan
scalar level3_cost_network.node[8].content_store 	hits[8] 	0
scalar level3_cost_network.node[8].content_store 	misses[8] 	0
scalar level3_cost_network.node[8].content_store 	decision_yes[8] 	0
scalar level3_cost_network.node[8].content_store 	decision_no[8] 	0
scalar level3_cost_network.node[8].content_store 	decision_ratio[8] 	0
scalar level3_cost_network.node[8].content_store 	correction_factor[8] 	0.0027225701061802
scalar level3_cost_network.node[8].content_store 	xi[8] 	1
scalar level3_cost_network.node[9].core_layer 	interests[9] 	0
scalar level3_cost_network.node[9].core_layer 	data[9] 	0
scalar level3_cost_network.node[9].content_store 	p_hit[9] 	-nan
scalar level3_cost_network.node[9].content_store 	hits[9] 	0
scalar level3_cost_network.node[9].content_store 	misses[9] 	0
scalar level3_cost_network.node[9].content_store 	decision_yes[9] 	0
scalar level3_cost_network.node[9].content_store 	decision_no[9] 	0
scalar level3_cost_network.node[9].content_store 	decision_ratio[9] 	0
scalar level3_cost_network.node[9].content_store 	correction_factor[9] 	0.0027225701061802
scalar level3_cost_network.node[9].content_store 	xi[9] 	1
scalar level3_cost_network.node[10].core_layer 	interests[10] 	0
scalar level3_cost_network.node[10].core_layer 	data[10] 	0
scalar level3_cost_network.node[10].content_store 	p_hit[10] 	-nan
scalar level3_cost_network.node[10].content_store 	hits[10] 	0
scalar level3_cost_network.node[10].content_store 	misses[10] 	0
scalar level3_cost_network.node[10].content_store 	decision_yes[10] 	0
scalar level3_cost_network.node[10].content_store 	decision_no[10] 	0
scalar level3_cost_network.node[10].content_store 	decision_ratio[10] 	0
scalar level3_cost_network.node[10].content_store 	correction_factor[10] 	0.0027225701061802
scalar level3_cost_network.node[10].content_store 	xi[10] 	1
scalar level3_cost_network.node[11].core_layer 	interests[11] 	116077
scalar level3_cost_network.node[11].core_layer 	data[11] 	109506
scalar level3_cost_network.node[11].content_store 	p_hit[11] 	0.056626205019082
scalar level3_cost_network.node[11].content_store 	hits[11] 	6573
scalar level3_cost_network.node[11].content_store 	misses[11] 	109504
scalar level3_cost_network.node[11].content_store 	decision_yes[11] 	834
scalar level3_cost_network.node[11].content_store 	decision_no[11] 	108672
scalar level3_cost_network.node[11].content_store 	decision_ratio[11] 	0.007616021039943
scalar level3_cost_network.node[11].content_store 	correction_factor[11] 	0.0027225701061802
scalar level3_cost_network.node[11].content_store 	xi[11] 	1
scalar level3_cost_network.node[12].core_layer 	interests[12] 	0
scalar level3_cost_network.node[12].core_layer 	data[12] 	0
scalar level3_cost_network.node[12].content_store 	p_hit[12] 	-nan
scalar level3_cost_network.node[12].content_store 	hits[12] 	0
scalar level3_cost_network.node[12].content_store 	misses[12] 	0
scalar level3_cost_network.node[12].content_store 	decision_yes[12] 	0
scalar level3_cost_network.node[12].content_store 	decision_no[12] 	0
scalar level3_cost_network.node[12].content_store 	decision_ratio[12] 	0
scalar level3_cost_network.node[12].content_store 	correction_factor[12] 	0.0027225701061802
scalar level3_cost_network.node[12].content_store 	xi[12] 	1
scalar level3_cost_network.node[13].core_layer 	interests[13] 	0
scalar level3_cost_network.node[13].core_layer 	data[13] 	0
scalar level3_cost_network.node[13].content_store 	p_hit[13] 	-nan
scalar level3_cost_network.node[13].content_store 	hits[13] 	0
scalar level3_cost_network.node[13].content_store 	misses[13] 	0
scalar level3_cost_network.node[13].content_store 	decision_yes[13] 	0
scalar level3_cost_network.node[13].content_store 	decision_no[13] 	0
scalar level3_cost_network.node[13].content_store 	decision_ratio[13] 	0
scalar level3_cost_network.node[13].content_store 	correction_factor[13] 	0.0027225701061802
scalar level3_cost_network.node[13].content_store 	xi[13] 	1
scalar level3_cost_network.node[14].core_layer 	interests[14] 	0
scalar level3_cost_network.node[14].core_layer 	data[14] 	0
scalar level3_cost_network.node[14].content_store 	p_hit[14] 	-nan
scalar level3_cost_network.node[14].content_store 	hits[14] 	0
scalar level3_cost_network.node[14].content_store 	misses[14] 	0
scalar level3_cost_network.node[14].content_store 	decision_yes[14] 	0
scalar level3_cost_network.node[14].content_store 	decision_no[14] 	0
scalar level3_cost_network.node[14].content_store 	decision_ratio[14] 	0
scalar level3_cost_network.node[14].content_store 	correction_factor[14] 	0.0027225701061802
scalar level3_cost_network.node[14].content_store 	xi[14] 	1
scalar level3_cost_network.node[15].core_layer 	interests[15] 	0
scalar level3_cost_network.node[15].core_layer 	data[15] 	0
scalar level3_cost_network.node[15].content_store 	p_hit[15] 	-nan
scalar level3_cost_network.node[15].content_store 	hits[15] 	0
scalar level3_cost_network.node[15].content_store 	misses[15] 	0
scalar level3_cost_network.node[15].content_store 	decision_yes[15] 	0
scalar level3_cost_network.node[15].content_store 	decision_no[15] 	0
scalar level3_cost_network.node[15].content_store 	decision_ratio[15] 	0
scalar level3_cost_network.node[15].content_store 	correction_factor[15] 	0.0027225701061802
scalar level3_cost_network.node[15].content_store 	xi[15] 	1
scalar level3_cost_network.node[16].core_layer 	interests[16] 	0
scalar level3_cost_network.node[16].core_layer 	data[16] 	0
scalar level3_cost_network.node[16].content_store 	p_hit[16] 	-nan
scalar level3_cost_network.node[16].content_store 	hits[16] 	0
scalar level3_cost_network.node[16].content_store 	misses[16] 	0
scalar level3_cost_network.node[16].content_store 	decision_yes[16] 	0
scalar level3_cost_network.node[16].content_store 	decision_no[16] 	0
scalar level3_cost_network.node[16].content_store 	decision_ratio[16] 	0
scalar level3_cost_network.node[16].content_store 	correction_factor[16] 	0.0027225701061802
scalar level3_cost_network.node[16].content_store 	xi[16] 	1
scalar level3_cost_network.node[17].core_layer 	interests[17] 	0
scalar level3_cost_network.node[17].core_layer 	data[17] 	0
scalar level3_cost_network.node[17].content_store 	p_hit[17] 	-nan
scalar level3_cost_network.node[17].content_store 	hits[17] 	0
scalar level3_cost_network.node[17].content_store 	misses[17] 	0
scalar level3_cost_network.node[17].content_store 	decision_yes[17] 	0
scalar level3_cost_network.node[17].content_store 	decision_no[17] 	0
scalar level3_cost_network.node[17].content_store 	decision_ratio[17] 	0
scalar level3_cost_network.node[17].content_store 	correction_factor[17] 	0.0027225701061802
scalar level3_cost_network.node[17].content_store 	xi[17] 	1
scalar level3_cost_network.node[18].core_layer 	interests[18] 	135039
scalar level3_cost_network.node[18].core_layer 	repo_load[18] 	101446
scalar level3_cost_network.node[18].core_layer 	data[18] 	0
scalar level3_cost_network.node[18].content_store 	p_hit[18] 	0.24876517154304
scalar level3_cost_network.node[18].content_store 	hits[18] 	33593
scalar level3_cost_network.node[18].content_store 	misses[18] 	101446
scalar level3_cost_network.node[18].content_store 	decision_yes[18] 	294
scalar level3_cost_network.node[18].content_store 	decision_no[18] 	101152
scalar level3_cost_network.node[18].content_store 	decision_ratio[18] 	0.0028980935670209
scalar level3_cost_network.node[18].content_store 	correction_factor[18] 	0.0027225701061802
scalar level3_cost_network.node[18].content_store 	xi[18] 	1
scalar level3_cost_network.node[19].core_layer 	interests[19] 	0
scalar level3_cost_network.node[19].core_layer 	data[19] 	0
scalar level3_cost_network.node[19].content_store 	p_hit[19] 	-nan
scalar level3_cost_network.node[19].content_store 	hits[19] 	0
scalar level3_cost_network.node[19].content_store 	misses[19] 	0
scalar level3_cost_network.node[19].content_store 	decision_yes[19] 	0
scalar level3_cost_network.node[19].content_store 	decision_no[19] 	0
scalar level3_cost_network.node[19].content_store 	decision_ratio[19] 	0
scalar level3_cost_network.node[19].content_store 	correction_factor[19] 	0.0027225701061802
scalar level3_cost_network.node[19].content_store 	xi[19] 	1
scalar level3_cost_network.node[20].core_layer 	interests[20] 	0
scalar level3_cost_network.node[20].core_layer 	data[20] 	0
scalar level3_cost_network.node[20].content_store 	p_hit[20] 	-nan
scalar level3_cost_network.node[20].content_store 	hits[20] 	0
scalar level3_cost_network.node[20].content_store 	misses[20] 	0
scalar level3_cost_network.node[20].content_store 	decision_yes[20] 	0
scalar level3_cost_network.node[20].content_store 	decision_no[20] 	0
scalar level3_cost_network.node[20].content_store 	decision_ratio[20] 	0
scalar level3_cost_network.node[20].content_store 	correction_factor[20] 	0.0027225701061802
scalar level3_cost_network.node[20].content_store 	xi[20] 	1
scalar level3_cost_network.node[21].core_layer 	interests[21] 	0
scalar level3_cost_network.node[21].core_layer 	data[21] 	0
scalar level3_cost_network.node[21].content_store 	p_hit[21] 	-nan
scalar level3_cost_network.node[21].content_store 	hits[21] 	0
scalar level3_cost_network.node[21].content_store 	misses[21] 	0
scalar level3_cost_network.node[21].content_store 	decision_yes[21] 	0
scalar level3_cost_network.node[21].content_store 	decision_no[21] 	0
scalar level3_cost_network.node[21].content_store 	decision_ratio[21] 	0
scalar level3_cost_network.node[21].content_store 	correction_factor[21] 	0.0027225701061802
scalar level3_cost_network.node[21].content_store 	xi[21] 	1
scalar level3_cost_network.node[22].core_layer 	interests[22] 	0
scalar level3_cost_network.node[22].core_layer 	data[22] 	0
scalar level3_cost_network.node[22].content_store 	p_hit[22] 	-nan
scalar level3_cost_network.node[22].content_store 	hits[22] 	0
scalar level3_cost_network.node[22].content_store 	misses[22] 	0
scalar level3_cost_network.node[22].content_store 	decision_yes[22] 	0
scalar level3_cost_network.node[22].content_store 	decision_no[22] 	0
scalar level3_cost_network.node[22].content_store 	decision_ratio[22] 	0
scalar level3_cost_network.node[22].content_store 	correction_factor[22] 	0.0027225701061802
scalar level3_cost_network.node[22].content_store 	xi[22] 	1
scalar level3_cost_network.node[23].core_layer 	interests[23] 	0
scalar level3_cost_network.node[23].core_layer 	data[23] 	0
scalar level3_cost_network.node[23].content_store 	p_hit[23] 	-nan
scalar level3_cost_network.node[23].content_store 	hits[23] 	0
scalar level3_cost_network.node[23].content_store 	misses[23] 	0
scalar level3_cost_network.node[23].content_store 	decision_yes[23] 	0
scalar level3_cost_network.node[23].content_store 	decision_no[23] 	0
scalar level3_cost_network.node[23].content_store 	decision_ratio[23] 	0
scalar level3_cost_network.node[23].content_store 	correction_factor[23] 	0.0027225701061802
scalar level3_cost_network.node[23].content_store 	xi[23] 	1
scalar level3_cost_network.node[24].core_layer 	interests[24] 	0
scalar level3_cost_network.node[24].core_layer 	data[24] 	0
scalar level3_cost_network.node[24].content_store 	p_hit[24] 	-nan
scalar level3_cost_network.node[24].content_store 	hits[24] 	0
scalar level3_cost_network.node[24].content_store 	misses[24] 	0
scalar level3_cost_network.node[24].content_store 	decision_yes[24] 	0
scalar level3_cost_network.node[24].content_store 	decision_no[24] 	0
scalar level3_cost_network.node[24].content_store 	decision_ratio[24] 	0
scalar level3_cost_network.node[24].content_store 	correction_factor[24] 	0.0027225701061802
scalar level3_cost_network.node[24].content_store 	xi[24] 	1
scalar level3_cost_network.node[25].core_layer 	interests[25] 	0
scalar level3_cost_network.node[25].core_layer 	data[25] 	0
scalar level3_cost_network.node[25].content_store 	p_hit[25] 	-nan
scalar level3_cost_network.node[25].content_store 	hits[25] 	0
scalar level3_cost_network.node[25].content_store 	misses[25] 	0
scalar level3_cost_network.node[25].content_store 	decision_yes[25] 	0
scalar level3_cost_network.node[25].content_store 	decision_no[25] 	0
scalar level3_cost_network.node[25].content_store 	decision_ratio[25] 	0
scalar level3_cost_network.node[25].content_store 	correction_factor[25] 	0.0027225701061802
scalar level3_cost_network.node[25].content_store 	xi[25] 	1
scalar level3_cost_network.node[26].core_layer 	interests[26] 	0
scalar level3_cost_network.node[26].core_layer 	data[26] 	0
scalar level3_cost_network.node[26].content_store 	p_hit[26] 	-nan
scalar level3_cost_network.node[26].content_store 	hits[26] 	0
scalar level3_cost_network.node[26].content_store 	misses[26] 	0
scalar level3_cost_network.node[26].content_store 	decision_yes[26] 	0
scalar level3_cost_network.node[26].content_store 	decision_no[26] 	0
scalar level3_cost_network.node[26].content_store 	decision_ratio[26] 	0
scalar level3_cost_network.node[26].content_store 	correction_factor[26] 	0.0027225701061802
scalar level3_cost_network.node[26].content_store 	xi[26] 	1
scalar level3_cost_network.node[27].core_layer 	interests[27] 	0
scalar level3_cost_network.node[27].core_layer 	data[27] 	0
scalar level3_cost_network.node[27].content_store 	p_hit[27] 	-nan
scalar level3_cost_network.node[27].content_store 	hits[27] 	0
scalar level3_cost_network.node[27].content_store 	misses[27] 	0
scalar level3_cost_network.node[27].content_store 	decision_yes[27] 	0
scalar level3_cost_network.node[27].content_store 	decision_no[27] 	0
scalar level3_cost_network.node[27].content_store 	decision_ratio[27] 	0
scalar level3_cost_network.node[27].content_store 	correction_factor[27] 	0.0027225701061802
scalar level3_cost_network.node[27].content_store 	xi[27] 	1
scalar level3_cost_network.node[28].core_layer 	interests[28] 	0
scalar level3_cost_network.node[28].core_layer 	data[28] 	0
scalar level3_cost_network.node[28].content_store 	p_hit[28] 	-nan
scalar level3_cost_network.node[28].content_store 	hits[28] 	0
scalar level3_cost_network.node[28].content_store 	misses[28] 	0
scalar level3_cost_network.node[28].content_store 	decision_yes[28] 	0
scalar level3_cost_network.node[28].content_store 	decision_no[28] 	0
scalar level3_cost_network.node[28].content_store 	decision_ratio[28] 	0
scalar level3_cost_network.node[28].content_store 	correction_factor[28] 	0.0027225701061802
scalar level3_cost_network.node[28].content_store 	xi[28] 	1
scalar level3_cost_network.node[29].core_layer 	interests[29] 	0
scalar level3_cost_network.node[29].core_layer 	data[29] 	0
scalar level3_cost_network.node[29].content_store 	p_hit[29] 	-nan
scalar level3_cost_network.node[29].content_store 	hits[29] 	0
scalar level3_cost_network.node[29].content_store 	misses[29] 	0
scalar level3_cost_network.node[29].content_store 	decision_yes[29] 	0
scalar level3_cost_network.node[29].content_store 	decision_no[29] 	0
scalar level3_cost_network.node[29].content_store 	decision_ratio[29] 	0
scalar level3_cost_network.node[29].content_store 	correction_factor[29] 	0.0027225701061802
scalar level3_cost_network.node[29].content_store 	xi[29] 	1
scalar level3_cost_network.node[30].core_layer 	interests[30] 	0
scalar level3_cost_network.node[30].core_layer 	data[30] 	0
scalar level3_cost_network.node[30].content_store 	p_hit[30] 	-nan
scalar level3_cost_network.node[30].content_store 	hits[30] 	0
scalar level3_cost_network.node[30].content_store 	misses[30] 	0
scalar level3_cost_network.node[30].content_store 	decision_yes[30] 	0
scalar level3_cost_network.node[30].content_store 	decision_no[30] 	0
scalar level3_cost_network.node[30].content_store 	decision_ratio[30] 	0
scalar level3_cost_network.node[30].content_store 	correction_factor[30] 	0.0027225701061802
scalar level3_cost_network.node[30].content_store 	xi[30] 	1
scalar level3_cost_network.node[31].core_layer 	interests[31] 	0
scalar level3_cost_network.node[31].core_layer 	data[31] 	0
scalar level3_cost_network.node[31].content_store 	p_hit[31] 	-nan
scalar level3_cost_network.node[31].content_store 	hits[31] 	0
scalar level3_cost_network.node[31].content_store 	misses[31] 	0
scalar level3_cost_network.node[31].content_store 	decision_yes[31] 	0
scalar level3_cost_network.node[31].content_store 	decision_no[31] 	0
scalar level3_cost_network.node[31].content_store 	decision_ratio[31] 	0
scalar level3_cost_network.node[31].content_store 	correction_factor[31] 	0.0027225701061802
scalar level3_cost_network.node[31].content_store 	xi[31] 	1
scalar level3_cost_network.node[32].core_layer 	interests[32] 	0
scalar level3_cost_network.node[32].core_layer 	data[32] 	0
scalar level3_cost_network.node[32].content_store 	p_hit[32] 	-nan
scalar level3_cost_network.node[32].content_store 	hits[32] 	0
scalar level3_cost_network.node[32].content_store 	misses[32] 	0
scalar level3_cost_network.node[32].content_store 	decision_yes[32] 	0
scalar level3_cost_network.node[32].content_store 	decision_no[32] 	0
scalar level3_cost_network.node[32].content_store 	decision_ratio[32] 	0
scalar level3_cost_network.node[32].content_store 	correction_factor[32] 	0.0027225701061802
scalar level3_cost_network.node[32].content_store 	xi[32] 	1
scalar level3_cost_network.node[33].core_layer 	interests[33] 	0
scalar level3_cost_network.node[33].core_layer 	data[33] 	0
scalar level3_cost_network.node[33].content_store 	p_hit[33] 	-nan
scalar level3_cost_network.node[33].content_store 	hits[33] 	0
scalar level3_cost_network.node[33].content_store 	misses[33] 	0
scalar level3_cost_network.node[33].content_store 	decision_yes[33] 	0
scalar level3_cost_network.node[33].content_store 	decision_no[33] 	0
scalar level3_cost_network.node[33].content_store 	decision_ratio[33] 	0
scalar level3_cost_network.node[33].content_store 	correction_factor[33] 	0.0027225701061802
scalar level3_cost_network.node[33].content_store 	xi[33] 	1
scalar level3_cost_network.node[34].core_layer 	interests[34] 	261624
scalar level3_cost_network.node[34].core_layer 	repo_load[34] 	106013
scalar level3_cost_network.node[34].core_layer 	data[34] 	116636
scalar level3_cost_network.node[34].content_store 	p_hit[34] 	0.13019065529156
scalar level3_cost_network.node[34].content_store 	hits[34] 	34061
scalar level3_cost_network.node[34].content_store 	misses[34] 	227563
scalar level3_cost_network.node[34].content_store 	decision_yes[34] 	2964
scalar level3_cost_network.node[34].content_store 	decision_no[34] 	219685
scalar level3_cost_network.node[34].content_store 	decision_ratio[34] 	0.013312433471518
scalar level3_cost_network.node[34].content_store 	correction_factor[34] 	0.0027225701061802
scalar level3_cost_network.node[34].content_store 	xi[34] 	1
scalar level3_cost_network.node[35].core_layer 	interests[35] 	188892
scalar level3_cost_network.node[35].core_layer 	repo_load[35] 	188892
scalar level3_cost_network.node[35].core_layer 	data[35] 	0
scalar level3_cost_network.node[35].content_store 	p_hit[35] 	0
scalar level3_cost_network.node[35].content_store 	hits[35] 	0
scalar level3_cost_network.node[35].content_store 	misses[35] 	188892
scalar level3_cost_network.node[35].content_store 	decision_yes[35] 	0
scalar level3_cost_network.node[35].content_store 	decision_no[35] 	188892
scalar level3_cost_network.node[35].content_store 	decision_ratio[35] 	0
scalar level3_cost_network.node[35].content_store 	correction_factor[35] 	0.0027225701061802
scalar level3_cost_network.node[35].content_store 	xi[35] 	1
scalar level3_cost_network.node[36].core_layer 	interests[36] 	0
scalar level3_cost_network.node[36].core_layer 	data[36] 	0
scalar level3_cost_network.node[36].content_store 	p_hit[36] 	-nan
scalar level3_cost_network.node[36].content_store 	hits[36] 	0
scalar level3_cost_network.node[36].content_store 	misses[36] 	0
scalar level3_cost_network.node[36].content_store 	decision_yes[36] 	0
scalar level3_cost_network.node[36].content_store 	decision_no[36] 	0
scalar level3_cost_network.node[36].content_store 	decision_ratio[36] 	0
scalar level3_cost_network.node[36].content_store 	correction_factor[36] 	0.0027225701061802
scalar level3_cost_network.node[36].content_store 	xi[36] 	1
scalar level3_cost_network.node[37].core_layer 	interests[37] 	0
scalar level3_cost_network.node[37].core_layer 	data[37] 	0
scalar level3_cost_network.node[37].content_store 	p_hit[37] 	-nan
scalar level3_cost_network.node[37].content_store 	hits[37] 	0
scalar level3_cost_network.node[37].content_store 	misses[37] 	0
scalar level3_cost_network.node[37].content_store 	decision_yes[37] 	0
scalar level3_cost_network.node[37].content_store 	decision_no[37] 	0
scalar level3_cost_network.node[37].content_store 	decision_ratio[37] 	0
scalar level3_cost_network.node[37].content_store 	correction_factor[37] 	0.0027225701061802
scalar level3_cost_network.node[37].content_store 	xi[37] 	1
scalar level3_cost_network.node[38].core_layer 	interests[38] 	0
scalar level3_cost_network.node[38].core_layer 	data[38] 	0
scalar level3_cost_network.node[38].content_store 	p_hit[38] 	-nan
scalar level3_cost_network.node[38].content_store 	hits[38] 	0
scalar level3_cost_network.node[38].content_store 	misses[38] 	0
scalar level3_cost_network.node[38].content_store 	decision_yes[38] 	0
scalar level3_cost_network.node[38].content_store 	decision_no[38] 	0
scalar level3_cost_network.node[38].content_store 	decision_ratio[38] 	0
scalar level3_cost_network.node[38].content_store 	correction_factor[38] 	0.0027225701061802
scalar level3_cost_network.node[38].content_store 	xi[38] 	1
scalar level3_cost_network.node[39].core_layer 	interests[39] 	0
scalar level3_cost_network.node[39].core_layer 	data[39] 	0
scalar level3_cost_network.node[39].content_store 	p_hit[39] 	-nan
scalar level3_cost_network.node[39].content_store 	hits[39] 	0
scalar level3_cost_network.node[39].content_store 	misses[39] 	0
scalar level3_cost_network.node[39].content_store 	decision_yes[39] 	0
scalar level3_cost_network.node[39].content_store 	decision_no[39] 	0
scalar level3_cost_network.node[39].content_store 	decision_ratio[39] 	0
scalar level3_cost_network.node[39].content_store 	correction_factor[39] 	0.0027225701061802
scalar level3_cost_network.node[39].content_store 	xi[39] 	1
scalar level3_cost_network.node[40].core_layer 	interests[40] 	0
scalar level3_cost_network.node[40].core_layer 	data[40] 	0
scalar level3_cost_network.node[40].content_store 	p_hit[40] 	-nan
scalar level3_cost_network.node[40].content_store 	hits[40] 	0
scalar level3_cost_network.node[40].content_store 	misses[40] 	0
scalar level3_cost_network.node[40].content_store 	decision_yes[40] 	0
scalar level3_cost_network.node[40].content_store 	decision_no[40] 	0
scalar level3_cost_network.node[40].content_store 	decision_ratio[40] 	0
scalar level3_cost_network.node[40].content_store 	correction_factor[40] 	0.0027225701061802
scalar level3_cost_network.node[40].content_store 	xi[40] 	1
scalar level3_cost_network.node[41].core_layer 	interests[41] 	0
scalar level3_cost_network.node[41].core_layer 	data[41] 	0
scalar level3_cost_network.node[41].content_store 	p_hit[41] 	-nan
scalar level3_cost_network.node[41].content_store 	hits[41] 	0
scalar level3_cost_network.node[41].content_store 	misses[41] 	0
scalar level3_cost_network.node[41].content_store 	decision_yes[41] 	0
scalar level3_cost_network.node[41].content_store 	decision_no[41] 	0
scalar level3_cost_network.node[41].content_store 	decision_ratio[41] 	0
scalar level3_cost_network.node[41].content_store 	correction_factor[41] 	0.0027225701061802
scalar level3_cost_network.node[41].content_store 	xi[41] 	1
scalar level3_cost_network.node[42].core_layer 	interests[42] 	187947
scalar level3_cost_network.node[42].core_layer 	data[42] 	163361
scalar level3_cost_network.node[42].content_store 	p_hit[42] 	0.076292784668018
scalar level3_cost_network.node[42].content_store 	hits[42] 	14339
scalar level3_cost_network.node[42].content_store 	misses[42] 	173608
scalar level3_cost_network.node[42].content_store 	decision_yes[42] 	982
scalar level3_cost_network.node[42].content_store 	decision_no[42] 	162379
scalar level3_cost_network.node[42].content_store 	decision_ratio[42] 	0.0060112266697682
scalar level3_cost_network.node[42].content_store 	correction_factor[42] 	0.0027225701061802
scalar level3_cost_network.node[42].content_store 	xi[42] 	1
scalar level3_cost_network.node[43].core_layer 	interests[43] 	0
scalar level3_cost_network.node[43].core_layer 	data[43] 	0
scalar level3_cost_network.node[43].content_store 	p_hit[43] 	-nan
scalar level3_cost_network.node[43].content_store 	hits[43] 	0
scalar level3_cost_network.node[43].content_store 	misses[43] 	0
scalar level3_cost_network.node[43].content_store 	decision_yes[43] 	0
scalar level3_cost_network.node[43].content_store 	decision_no[43] 	0
scalar level3_cost_network.node[43].content_store 	decision_ratio[43] 	0
scalar level3_cost_network.node[43].content_store 	correction_factor[43] 	0.0027225701061802
scalar level3_cost_network.node[43].content_store 	xi[43] 	1
scalar level3_cost_network.node[44].core_layer 	interests[44] 	0
scalar level3_cost_network.node[44].core_layer 	data[44] 	0
scalar level3_cost_network.node[44].content_store 	p_hit[44] 	-nan
scalar level3_cost_network.node[44].content_store 	hits[44] 	0
scalar level3_cost_network.node[44].content_store 	misses[44] 	0
scalar level3_cost_network.node[44].content_store 	decision_yes[44] 	0
scalar level3_cost_network.node[44].content_store 	decision_no[44] 	0
scalar level3_cost_network.node[44].content_store 	decision_ratio[44] 	0
scalar level3_cost_network.node[44].content_store 	correction_factor[44] 	0.0027225701061802
scalar level3_cost_network.node[44].content_store 	xi[44] 	1
scalar level3_cost_network.node[45].core_layer 	interests[45] 	0
scalar level3_cost_network.node[45].core_layer 	data[45] 	0
scalar level3_cost_network.node[45].content_store 	p_hit[45] 	-nan
scalar level3_cost_network.node[45].content_store 	hits[45] 	0
scalar level3_cost_network.node[45].content_store 	misses[45] 	0
scalar level3_cost_network.node[45].content_store 	decision_yes[45] 	0
scalar level3_cost_network.node[45].content_store 	decision_no[45] 	0
scalar level3_cost_network.node[45].content_store 	decision_ratio[45] 	0
scalar level3_cost_network.node[45].content_store 	correction_factor[45] 	0.0027225701061802
scalar level3_cost_network.node[45].content_store 	xi[45] 	1
scalar level3_cost_network.client[1] 	hdistance[1] 	3.2927918362532
scalar level3_cost_network.client[1] 	downloads[1] 	169530
scalar level3_cost_network.client[1] 	avg_time[1] 	0.068484705684
scalar level3_cost_network.client[1] 	interests_sent[1] 	180039
scalar level3_cost_network.client[34] 	hdistance[34] 	1.8836090793153
scalar level3_cost_network.client[34] 	downloads[34] 	174859
scalar level3_cost_network.client[34] 	avg_time[34] 	0.026239556605
scalar level3_cost_network.client[34] 	interests_sent[34] 	179773
scalar level3_cost_network.client[42] 	hdistance[42] 	2.3529207109245
scalar level3_cost_network.client[42] 	downloads[42] 	169582
scalar level3_cost_network.client[42] 	avg_time[42] 	0.067663345916
scalar level3_cost_network.client[42] 	interests_sent[42] 	179829
