version 2
run General-639-20140511-15:29:25-13351
attr D costprobprodcorr0.01
attr F nrr
attr R lru
attr a 1
attr configname General
attr csize 1e3
attr ctlg 1e5
attr datetime 20140511-15:29:25
attr experiment General
attr inifile omnetpp.ini
attr iterationvars "$net=one_cache_scenario_3_links, $rep=11, $priceratiovalue=5, $weights=0.333_0.333_0.334, $a=1, $ctlg=1e5, $F=nrr, $ttl=1000, $D=costprobprodcorr0.01, $xi=1.75, $R=lru, $csize=1e3"
attr iterationvars2 "$net=one_cache_scenario_3_links, $rep=11, $priceratiovalue=5, $weights=0.333_0.333_0.334, $a=1, $ctlg=1e5, $F=nrr, $ttl=1000, $D=costprobprodcorr0.01, $xi=1.75, $R=lru, $csize=1e3, $repetition=0"
attr measurement "$net=one_cache_scenario_3_links, $rep=11, $priceratiovalue=5, $weights=0.333_0.333_0.334, $a=1, $ctlg=1e5, $F=nrr, $ttl=1000, $D=costprobprodcorr0.01, $xi=1.75, $R=lru, $csize=1e3"
attr net one_cache_scenario_3_links
attr network networks.${net=one_cache_scenario_3_links}_network
attr priceratiovalue 5
attr processid 13351
attr rep 11
attr repetition 0
attr replication #0
attr resultdir results
attr runnumber 639
attr seedset 11
attr ttl 1000
attr weights 0.333_0.333_0.334
attr xi 1.75

scalar . 	a 	1
scalar . 	csize 	1e3
scalar . 	ctlg 	1e5
scalar . 	priceratiovalue 	5
scalar . 	rep 	11
scalar . 	ttl 	1000
scalar . 	xi 	1.75
scalar one_cache_scenario_3_links_network.content_distribution 	repo-0 	4
scalar one_cache_scenario_3_links_network.content_distribution 	repo-1 	5
scalar one_cache_scenario_3_links_network.content_distribution 	repo-2 	6
scalar one_cache_scenario_3_links_network.content_distribution 	client-0 	0
scalar one_cache_scenario_3_links_network.content_distribution 	repo-0_card 	33093
scalar one_cache_scenario_3_links_network.content_distribution 	repo-1_card 	33554
scalar one_cache_scenario_3_links_network.content_distribution 	repo-2_card 	33353
scalar one_cache_scenario_3_links_network.statistics 	p_hit 	0.11868787276342
scalar one_cache_scenario_3_links_network.statistics 	interests 	62515.714285714
scalar one_cache_scenario_3_links_network.statistics 	data 	36730.571428571
scalar one_cache_scenario_3_links_network.statistics 	hdistance 	1.4244858611825
scalar one_cache_scenario_3_links_network.statistics 	avg_time 	0
scalar one_cache_scenario_3_links_network.statistics 	downloads 	180496
scalar one_cache_scenario_3_links_network.statistics 	total_cost 	144706
scalar one_cache_scenario_3_links_network.statistics 	total_replicas 	100000
scalar one_cache_scenario_3_links_network.statistics 	interests_sent 	180496
scalar one_cache_scenario_3_links_network.node[0].core_layer 	interests[0] 	180496
scalar one_cache_scenario_3_links_network.node[0].core_layer 	data[0] 	128557
scalar one_cache_scenario_3_links_network.node[0].core_layer 	repo_int[0] 	128557
scalar one_cache_scenario_3_links_network.node[0].content_store 	p_hit[0] 	0.28775706940874
scalar one_cache_scenario_3_links_network.node[0].content_store 	hits[0] 	51939
scalar one_cache_scenario_3_links_network.node[0].content_store 	misses[0] 	128557
scalar one_cache_scenario_3_links_network.node[0].content_store 	decision_yes[0] 	693
scalar one_cache_scenario_3_links_network.node[0].content_store 	decision_no[0] 	127864
scalar one_cache_scenario_3_links_network.node[0].content_store 	decision_ratio[0] 	0.0053906049456661
scalar one_cache_scenario_3_links_network.node[0].content_store 	correction_factor[0] 	0.0016900509020221
scalar one_cache_scenario_3_links_network.node[0].content_store 	xi[0] 	1.75
scalar one_cache_scenario_3_links_network.node[1].core_layer 	interests[1] 	70615
scalar one_cache_scenario_3_links_network.node[1].core_layer 	data[1] 	70615
scalar one_cache_scenario_3_links_network.node[1].content_store 	p_hit[1] 	0
scalar one_cache_scenario_3_links_network.node[1].content_store 	hits[1] 	0
scalar one_cache_scenario_3_links_network.node[1].content_store 	misses[1] 	70615
scalar one_cache_scenario_3_links_network.node[1].content_store 	decision_yes[1] 	0
scalar one_cache_scenario_3_links_network.node[1].content_store 	decision_no[1] 	70615
scalar one_cache_scenario_3_links_network.node[1].content_store 	decision_ratio[1] 	0
scalar one_cache_scenario_3_links_network.node[2].core_layer 	interests[2] 	36251
scalar one_cache_scenario_3_links_network.node[2].core_layer 	data[2] 	36251
scalar one_cache_scenario_3_links_network.node[2].content_store 	p_hit[2] 	0
scalar one_cache_scenario_3_links_network.node[2].content_store 	hits[2] 	0
scalar one_cache_scenario_3_links_network.node[2].content_store 	misses[2] 	36251
scalar one_cache_scenario_3_links_network.node[2].content_store 	decision_yes[2] 	0
scalar one_cache_scenario_3_links_network.node[2].content_store 	decision_no[2] 	36251
scalar one_cache_scenario_3_links_network.node[2].content_store 	decision_ratio[2] 	0
scalar one_cache_scenario_3_links_network.node[3].core_layer 	interests[3] 	21691
scalar one_cache_scenario_3_links_network.node[3].core_layer 	data[3] 	21691
scalar one_cache_scenario_3_links_network.node[3].content_store 	p_hit[3] 	0
scalar one_cache_scenario_3_links_network.node[3].content_store 	hits[3] 	0
scalar one_cache_scenario_3_links_network.node[3].content_store 	misses[3] 	21691
scalar one_cache_scenario_3_links_network.node[3].content_store 	decision_yes[3] 	0
scalar one_cache_scenario_3_links_network.node[3].content_store 	decision_no[3] 	21691
scalar one_cache_scenario_3_links_network.node[3].content_store 	decision_ratio[3] 	0
scalar one_cache_scenario_3_links_network.node[4].core_layer 	interests[4] 	70615
scalar one_cache_scenario_3_links_network.node[4].core_layer 	repo_load[4] 	70615
scalar one_cache_scenario_3_links_network.node[4].core_layer 	data[4] 	0
scalar one_cache_scenario_3_links_network.node[4].content_store 	p_hit[4] 	0
scalar one_cache_scenario_3_links_network.node[4].content_store 	hits[4] 	0
scalar one_cache_scenario_3_links_network.node[4].content_store 	misses[4] 	70615
scalar one_cache_scenario_3_links_network.node[4].content_store 	decision_yes[4] 	0
scalar one_cache_scenario_3_links_network.node[4].content_store 	decision_no[4] 	70615
scalar one_cache_scenario_3_links_network.node[4].content_store 	decision_ratio[4] 	0
scalar one_cache_scenario_3_links_network.node[5].core_layer 	interests[5] 	36251
scalar one_cache_scenario_3_links_network.node[5].core_layer 	repo_load[5] 	36251
scalar one_cache_scenario_3_links_network.node[5].core_layer 	data[5] 	0
scalar one_cache_scenario_3_links_network.node[5].content_store 	p_hit[5] 	0
scalar one_cache_scenario_3_links_network.node[5].content_store 	hits[5] 	0
scalar one_cache_scenario_3_links_network.node[5].content_store 	misses[5] 	36251
scalar one_cache_scenario_3_links_network.node[5].content_store 	decision_yes[5] 	0
scalar one_cache_scenario_3_links_network.node[5].content_store 	decision_no[5] 	36251
scalar one_cache_scenario_3_links_network.node[5].content_store 	decision_ratio[5] 	0
scalar one_cache_scenario_3_links_network.node[6].core_layer 	interests[6] 	21691
scalar one_cache_scenario_3_links_network.node[6].core_layer 	repo_load[6] 	21691
scalar one_cache_scenario_3_links_network.node[6].core_layer 	data[6] 	0
scalar one_cache_scenario_3_links_network.node[6].content_store 	p_hit[6] 	0
scalar one_cache_scenario_3_links_network.node[6].content_store 	hits[6] 	0
scalar one_cache_scenario_3_links_network.node[6].content_store 	misses[6] 	21691
scalar one_cache_scenario_3_links_network.node[6].content_store 	decision_yes[6] 	0
scalar one_cache_scenario_3_links_network.node[6].content_store 	decision_no[6] 	21691
scalar one_cache_scenario_3_links_network.node[6].content_store 	decision_ratio[6] 	0
scalar one_cache_scenario_3_links_network.client[0] 	hdistance[0] 	1.4244858611825
scalar one_cache_scenario_3_links_network.client[0] 	downloads[0] 	180496
scalar one_cache_scenario_3_links_network.client[0] 	avg_time[0] 	0
scalar one_cache_scenario_3_links_network.client[0] 	interests_sent[0] 	180496
