version 2
run General-17-20141007-11:02:07-8408
attr D fix0.05
attr F nrr
attr R lru
attr a 1
attr configname General
attr csize 1e3
attr ctlg 1e5
attr datetime 20141007-11:02:07
attr experiment General
attr inifile omnetpp.ini
attr iterationvars "$net=abilene_cost, $rep=1, $priceratiovalue=10, $weights=0.333_0.333_0.334, $lambda=100, $a=1, $ctlg=1e5, $F=nrr, $ttl=10, $D=fix0.05, $xi=1, $R=lru, $csize=1e3, $pricebits=0, $window=60, $variance=0.05, $mytime=1800"
attr iterationvars2 "$net=abilene_cost, $rep=1, $priceratiovalue=10, $weights=0.333_0.333_0.334, $lambda=100, $a=1, $ctlg=1e5, $F=nrr, $ttl=10, $D=fix0.05, $xi=1, $R=lru, $csize=1e3, $pricebits=0, $window=60, $variance=0.05, $mytime=1800, $repetition=0"
attr lambda 100
attr measurement "$net=abilene_cost, $rep=1, $priceratiovalue=10, $weights=0.333_0.333_0.334, $lambda=100, $a=1, $ctlg=1e5, $F=nrr, $ttl=10, $D=fix0.05, $xi=1, $R=lru, $csize=1e3, $pricebits=0, $window=60, $variance=0.05, $mytime=1800"
attr mytime 1800
attr net abilene_cost
attr network networks.${net=abilene_cost,geant_cost}_network
attr pricebits 0
attr priceratiovalue 10
attr processid 8408
attr rep 1
attr repetition 0
attr replication #0
attr resultdir results
attr runnumber 17
attr seedset 1
attr ttl 10
attr variance 0.05
attr weights 0.333_0.333_0.334
attr window 60
attr xi 1

scalar . 	a 	1
scalar . 	csize 	1e3
scalar . 	ctlg 	1e5
scalar . 	lambda 	100
scalar . 	mytime 	1800
scalar . 	pricebits 	0
scalar . 	priceratiovalue 	10
scalar . 	rep 	1
scalar . 	ttl 	10
scalar . 	variance 	0.05
scalar . 	window 	60
scalar . 	xi 	1
scalar abilene_cost_network.content_distribution 	repo-0 	10
scalar abilene_cost_network.content_distribution 	repo-1 	7
scalar abilene_cost_network.content_distribution 	repo-2 	5
scalar abilene_cost_network.content_distribution 	client-0 	8
scalar abilene_cost_network.content_distribution 	client-1 	7
scalar abilene_cost_network.content_distribution 	client-2 	2
scalar abilene_cost_network.content_distribution 	repo-0_card 	33397
scalar abilene_cost_network.content_distribution 	repo-0_price 	0
scalar abilene_cost_network.content_distribution 	repo-1_card 	33041
scalar abilene_cost_network.content_distribution 	repo-1_price 	10
scalar abilene_cost_network.content_distribution 	repo-2_card 	33562
scalar abilene_cost_network.content_distribution 	repo-2_price 	1
scalar abilene_cost_network.statistics 	repo_popularity[0] 	0.36106327575467
scalar abilene_cost_network.statistics 	repo_popularity[1] 	0.3490006524958
scalar abilene_cost_network.statistics 	repo_popularity[2] 	0.28993607174955
scalar abilene_cost_network.statistics 	stabilization_time 	36060
scalar abilene_cost_network.statistics 	p_hit 	0.2282946058725
scalar abilene_cost_network.statistics 	interests 	107143.45454545
scalar abilene_cost_network.statistics 	data 	58066.545454545
scalar abilene_cost_network.statistics 	hdistance 	1.6845560183569
scalar abilene_cost_network.statistics 	avg_time 	0.007525129807
scalar abilene_cost_network.statistics 	downloads 	539740
scalar abilene_cost_network.statistics 	total_cost 	1130155
scalar abilene_cost_network.statistics 	total_replicas 	100000
scalar abilene_cost_network.statistics 	inner_hit 	0.49855856523511
scalar abilene_cost_network.node[0].core_layer 	interests[0] 	0
scalar abilene_cost_network.node[0].core_layer 	data[0] 	0
scalar abilene_cost_network.node[0].core_layer 	repo_int[0] 	270648
scalar abilene_cost_network.node[0].content_store 	p_hit[0] 	-nan
scalar abilene_cost_network.node[0].content_store 	hits[0] 	0
scalar abilene_cost_network.node[0].content_store 	misses[0] 	0
scalar abilene_cost_network.node[0].content_store 	decision_yes[0] 	0
scalar abilene_cost_network.node[0].content_store 	decision_no[0] 	0
scalar abilene_cost_network.node[0].content_store 	decision_ratio[0] 	0
scalar abilene_cost_network.node[1].core_layer 	interests[1] 	36685
scalar abilene_cost_network.node[1].core_layer 	data[1] 	29010
scalar abilene_cost_network.node[1].content_store 	p_hit[1] 	0.20921357503067
scalar abilene_cost_network.node[1].content_store 	hits[1] 	7675
scalar abilene_cost_network.node[1].content_store 	misses[1] 	29010
scalar abilene_cost_network.node[1].content_store 	decision_yes[1] 	1419
scalar abilene_cost_network.node[1].content_store 	decision_no[1] 	27591
scalar abilene_cost_network.node[1].content_store 	decision_ratio[1] 	0.048914167528438
scalar abilene_cost_network.node[2].core_layer 	interests[2] 	200026
scalar abilene_cost_network.node[2].core_layer 	data[2] 	125662
scalar abilene_cost_network.node[2].content_store 	p_hit[2] 	0.3715916930799
scalar abilene_cost_network.node[2].content_store 	hits[2] 	74328
scalar abilene_cost_network.node[2].content_store 	misses[2] 	125698
scalar abilene_cost_network.node[2].content_store 	decision_yes[2] 	6303
scalar abilene_cost_network.node[2].content_store 	decision_no[2] 	119359
scalar abilene_cost_network.node[2].content_store 	decision_ratio[2] 	0.050158361318457
scalar abilene_cost_network.node[3].core_layer 	interests[3] 	90463
scalar abilene_cost_network.node[3].core_layer 	data[3] 	76135
scalar abilene_cost_network.node[3].content_store 	p_hit[3] 	0.15838519615755
scalar abilene_cost_network.node[3].content_store 	hits[3] 	14328
scalar abilene_cost_network.node[3].content_store 	misses[3] 	76135
scalar abilene_cost_network.node[3].content_store 	decision_yes[3] 	3853
scalar abilene_cost_network.node[3].content_store 	decision_no[3] 	72282
scalar abilene_cost_network.node[3].content_store 	decision_ratio[3] 	0.050607473566691
scalar abilene_cost_network.node[4].core_layer 	interests[4] 	34256
scalar abilene_cost_network.node[4].core_layer 	data[4] 	29225
scalar abilene_cost_network.node[4].content_store 	p_hit[4] 	0.14686478281177
scalar abilene_cost_network.node[4].content_store 	hits[4] 	5031
scalar abilene_cost_network.node[4].content_store 	misses[4] 	29225
scalar abilene_cost_network.node[4].content_store 	decision_yes[4] 	1475
scalar abilene_cost_network.node[4].content_store 	decision_no[4] 	27750
scalar abilene_cost_network.node[4].content_store 	decision_ratio[4] 	0.050470487596236
scalar abilene_cost_network.node[5].core_layer 	interests[5] 	87058
scalar abilene_cost_network.node[5].core_layer 	repo_load[5] 	83375
scalar abilene_cost_network.node[5].core_layer 	data[5] 	0
scalar abilene_cost_network.node[5].content_store 	p_hit[5] 	0.042305129913391
scalar abilene_cost_network.node[5].content_store 	hits[5] 	3683
scalar abilene_cost_network.node[5].content_store 	misses[5] 	83375
scalar abilene_cost_network.node[5].content_store 	decision_yes[5] 	4305
scalar abilene_cost_network.node[5].content_store 	decision_no[5] 	79070
scalar abilene_cost_network.node[5].content_store 	decision_ratio[5] 	0.051634182908546
scalar abilene_cost_network.node[6].core_layer 	interests[6] 	64547
scalar abilene_cost_network.node[6].core_layer 	data[6] 	57833
scalar abilene_cost_network.node[6].content_store 	p_hit[6] 	0.10401722775652
scalar abilene_cost_network.node[6].content_store 	hits[6] 	6714
scalar abilene_cost_network.node[6].content_store 	misses[6] 	57833
scalar abilene_cost_network.node[6].content_store 	decision_yes[6] 	2875
scalar abilene_cost_network.node[6].content_store 	decision_no[6] 	54958
scalar abilene_cost_network.node[6].content_store 	decision_ratio[6] 	0.049712102087044
scalar abilene_cost_network.node[7].core_layer 	interests[7] 	285988
scalar abilene_cost_network.node[7].core_layer 	repo_load[7] 	104678
scalar abilene_cost_network.node[7].core_layer 	data[7] 	114071
scalar abilene_cost_network.node[7].content_store 	p_hit[7] 	0.23499937060296
scalar abilene_cost_network.node[7].content_store 	hits[7] 	67207
scalar abilene_cost_network.node[7].content_store 	misses[7] 	218781
scalar abilene_cost_network.node[7].content_store 	decision_yes[7] 	10935
scalar abilene_cost_network.node[7].content_store 	decision_no[7] 	207814
scalar abilene_cost_network.node[7].content_store 	decision_ratio[7] 	0.0499887999488
scalar abilene_cost_network.node[8].core_layer 	interests[8] 	227632
scalar abilene_cost_network.node[8].core_layer 	data[8] 	149083
scalar abilene_cost_network.node[8].content_store 	p_hit[8] 	0.34477577844943
scalar abilene_cost_network.node[8].content_store 	hits[8] 	78482
scalar abilene_cost_network.node[8].content_store 	misses[8] 	149150
scalar abilene_cost_network.node[8].content_store 	decision_yes[8] 	7421
scalar abilene_cost_network.node[8].content_store 	decision_no[8] 	141662
scalar abilene_cost_network.node[8].content_store 	decision_ratio[8] 	0.049777640643132
scalar abilene_cost_network.node[9].core_layer 	interests[9] 	65200
scalar abilene_cost_network.node[9].core_layer 	data[9] 	57713
scalar abilene_cost_network.node[9].content_store 	p_hit[9] 	0.11483128834356
scalar abilene_cost_network.node[9].content_store 	hits[9] 	7487
scalar abilene_cost_network.node[9].content_store 	misses[9] 	57713
scalar abilene_cost_network.node[9].content_store 	decision_yes[9] 	2948
scalar abilene_cost_network.node[9].content_store 	decision_no[9] 	54765
scalar abilene_cost_network.node[9].content_store 	decision_ratio[9] 	0.051080345849289
scalar abilene_cost_network.node[10].core_layer 	interests[10] 	86723
scalar abilene_cost_network.node[10].core_layer 	repo_load[10] 	82595
scalar abilene_cost_network.node[10].core_layer 	data[10] 	0
scalar abilene_cost_network.node[10].content_store 	p_hit[10] 	0.047599829341697
scalar abilene_cost_network.node[10].content_store 	hits[10] 	4128
scalar abilene_cost_network.node[10].content_store 	misses[10] 	82595
scalar abilene_cost_network.node[10].content_store 	decision_yes[10] 	4175
scalar abilene_cost_network.node[10].content_store 	decision_no[10] 	78420
scalar abilene_cost_network.node[10].content_store 	decision_ratio[10] 	0.050547853986319
scalar abilene_cost_network.client[2] 	hdistance[2] 	1.850868990245
scalar abilene_cost_network.client[2] 	downloads[2] 	180727
scalar abilene_cost_network.client[2] 	avg_time[2] 	0.007757564806
scalar abilene_cost_network.client[7] 	hdistance[7] 	1.5180702751496
scalar abilene_cost_network.client[7] 	downloads[7] 	179466
scalar abilene_cost_network.client[7] 	avg_time[7] 	0.006609817406
scalar abilene_cost_network.client[8] 	hdistance[8] 	1.6847287896762
scalar abilene_cost_network.client[8] 	downloads[8] 	179547
scalar abilene_cost_network.client[8] 	avg_time[8] 	0.00820800721
