version 2
run General-5-20141031-11:24:45-25689
attr D costaware0.01
attr F spr
attr R lru
attr a 1
attr configname General
attr csize 1e3
attr ctlg 1e5
attr datetime 20141031-11:24:45
attr experiment General
attr inifile omnetpp.ini
attr iterationvars "$rep=16, $lambda=100, $a=1, $ctlg=1e5, $F=spr, $ttl=10, $D=costaware0.01, $R=lru, $csize=1e3, $window=60, $variance=0.05, $mytime=1800, $kappa=1, $priceratiovalue=10, $pricebits=0"
attr iterationvars2 "$rep=16, $lambda=100, $a=1, $ctlg=1e5, $F=spr, $ttl=10, $D=costaware0.01, $R=lru, $csize=1e3, $window=60, $variance=0.05, $mytime=1800, $kappa=1, $priceratiovalue=10, $pricebits=0, $repetition=0"
attr kappa 1
attr lambda 100
attr measurement "$rep=16, $lambda=100, $a=1, $ctlg=1e5, $F=spr, $ttl=10, $D=costaware0.01, $R=lru, $csize=1e3, $window=60, $variance=0.05, $mytime=1800, $kappa=1, $priceratiovalue=10, $pricebits=0"
attr mytime 1800
attr network networks.ws${rep}_network
attr pricebits 0
attr priceratiovalue 10
attr processid 25689
attr rep 16
attr repetition 0
attr replication #0
attr resultdir results
attr runnumber 5
attr seedset 16
attr ttl 10
attr variance 0.05
attr window 60

scalar . 	a 	1
scalar . 	csize 	1e3
scalar . 	ctlg 	1e5
scalar . 	kappa 	1
scalar . 	lambda 	100
scalar . 	mytime 	1800
scalar . 	pricebits 	0
scalar . 	priceratiovalue 	10
scalar . 	rep 	16
scalar . 	ttl 	10
scalar . 	variance 	0.05
scalar . 	window 	60
scalar ws16_network.content_distribution 	repo-0 	10
scalar ws16_network.content_distribution 	repo-1 	13
scalar ws16_network.content_distribution 	repo-2 	8
scalar ws16_network.content_distribution 	client-0 	20
scalar ws16_network.content_distribution 	client-1 	18
scalar ws16_network.content_distribution 	client-2 	12
scalar ws16_network.content_distribution 	repo-0_card 	33301
scalar ws16_network.content_distribution 	repo-0_price 	10
scalar ws16_network.content_distribution 	repo-1_card 	33210
scalar ws16_network.content_distribution 	repo-1_price 	1
scalar ws16_network.content_distribution 	repo-2_card 	33489
scalar ws16_network.content_distribution 	repo-2_price 	0
scalar ws16_network.statistics 	repo_popularity[0] 	0.32646379131244
scalar ws16_network.statistics 	repo_popularity[1] 	0.28759362553521
scalar ws16_network.statistics 	repo_popularity[2] 	0.38594258315236
scalar ws16_network.statistics 	stabilization_time 	36060
scalar ws16_network.statistics 	p_hit 	0.08088634742476
scalar ws16_network.statistics 	interests 	76977.818181818
scalar ws16_network.statistics 	data 	52475.727272727
scalar ws16_network.statistics 	hdistance 	2.9121419645874
scalar ws16_network.statistics 	avg_time 	0.011170883673
scalar ws16_network.statistics 	downloads 	532899
scalar ws16_network.statistics 	total_cost 	1036848
scalar ws16_network.statistics 	total_replicas 	100000
scalar ws16_network.statistics 	inner_hit 	0.25931367857699
scalar ws16_network.statistics 	interests_sent 	539045
scalar ws16_network.node[0].core_layer 	interests[0] 	278869
scalar ws16_network.node[0].core_layer 	data[0] 	262545
scalar ws16_network.node[0].core_layer 	repo_int[0] 	394711
scalar ws16_network.node[0].content_store 	p_hit[0] 	0.054222591969706
scalar ws16_network.node[0].content_store 	hits[0] 	15121
scalar ws16_network.node[0].content_store 	misses[0] 	263748
scalar ws16_network.node[0].content_store 	decision_yes[0] 	1032
scalar ws16_network.node[0].content_store 	decision_no[0] 	261513
scalar ws16_network.node[0].content_store 	decision_ratio[0] 	0.003930754727761
scalar ws16_network.node[0].content_store 	correction_factor[0] 	0.0027225701061802
scalar ws16_network.node[0].content_store 	kappa[0] 	1
scalar ws16_network.node[1].core_layer 	interests[1] 	0
scalar ws16_network.node[1].core_layer 	data[1] 	0
scalar ws16_network.node[1].content_store 	p_hit[1] 	-nan
scalar ws16_network.node[1].content_store 	hits[1] 	0
scalar ws16_network.node[1].content_store 	misses[1] 	0
scalar ws16_network.node[1].content_store 	decision_yes[1] 	0
scalar ws16_network.node[1].content_store 	decision_no[1] 	0
scalar ws16_network.node[1].content_store 	decision_ratio[1] 	0
scalar ws16_network.node[1].content_store 	correction_factor[1] 	0.0027225701061802
scalar ws16_network.node[1].content_store 	kappa[1] 	1
scalar ws16_network.node[2].core_layer 	interests[2] 	67995
scalar ws16_network.node[2].core_layer 	data[2] 	67995
scalar ws16_network.node[2].content_store 	p_hit[2] 	0
scalar ws16_network.node[2].content_store 	hits[2] 	0
scalar ws16_network.node[2].content_store 	misses[2] 	67995
scalar ws16_network.node[2].content_store 	decision_yes[2] 	0
scalar ws16_network.node[2].content_store 	decision_no[2] 	67995
scalar ws16_network.node[2].content_store 	decision_ratio[2] 	0
scalar ws16_network.node[2].content_store 	correction_factor[2] 	0.0027225701061802
scalar ws16_network.node[2].content_store 	kappa[2] 	1
scalar ws16_network.node[3].core_layer 	interests[3] 	0
scalar ws16_network.node[3].core_layer 	data[3] 	0
scalar ws16_network.node[3].content_store 	p_hit[3] 	-nan
scalar ws16_network.node[3].content_store 	hits[3] 	0
scalar ws16_network.node[3].content_store 	misses[3] 	0
scalar ws16_network.node[3].content_store 	decision_yes[3] 	0
scalar ws16_network.node[3].content_store 	decision_no[3] 	0
scalar ws16_network.node[3].content_store 	decision_ratio[3] 	0
scalar ws16_network.node[3].content_store 	correction_factor[3] 	0.0027225701061802
scalar ws16_network.node[3].content_store 	kappa[3] 	1
scalar ws16_network.node[4].core_layer 	interests[4] 	0
scalar ws16_network.node[4].core_layer 	data[4] 	0
scalar ws16_network.node[4].content_store 	p_hit[4] 	-nan
scalar ws16_network.node[4].content_store 	hits[4] 	0
scalar ws16_network.node[4].content_store 	misses[4] 	0
scalar ws16_network.node[4].content_store 	decision_yes[4] 	0
scalar ws16_network.node[4].content_store 	decision_no[4] 	0
scalar ws16_network.node[4].content_store 	decision_ratio[4] 	0
scalar ws16_network.node[4].content_store 	correction_factor[4] 	0.0027225701061802
scalar ws16_network.node[4].content_store 	kappa[4] 	1
scalar ws16_network.node[5].core_layer 	interests[5] 	0
scalar ws16_network.node[5].core_layer 	data[5] 	0
scalar ws16_network.node[5].content_store 	p_hit[5] 	-nan
scalar ws16_network.node[5].content_store 	hits[5] 	0
scalar ws16_network.node[5].content_store 	misses[5] 	0
scalar ws16_network.node[5].content_store 	decision_yes[5] 	0
scalar ws16_network.node[5].content_store 	decision_no[5] 	0
scalar ws16_network.node[5].content_store 	decision_ratio[5] 	0
scalar ws16_network.node[5].content_store 	correction_factor[5] 	0.0027225701061802
scalar ws16_network.node[5].content_store 	kappa[5] 	1
scalar ws16_network.node[6].core_layer 	interests[6] 	0
scalar ws16_network.node[6].core_layer 	data[6] 	0
scalar ws16_network.node[6].content_store 	p_hit[6] 	-nan
scalar ws16_network.node[6].content_store 	hits[6] 	0
scalar ws16_network.node[6].content_store 	misses[6] 	0
scalar ws16_network.node[6].content_store 	decision_yes[6] 	0
scalar ws16_network.node[6].content_store 	decision_no[6] 	0
scalar ws16_network.node[6].content_store 	decision_ratio[6] 	0
scalar ws16_network.node[6].content_store 	correction_factor[6] 	0.0027225701061802
scalar ws16_network.node[6].content_store 	kappa[6] 	1
scalar ws16_network.node[7].core_layer 	interests[7] 	0
scalar ws16_network.node[7].core_layer 	data[7] 	0
scalar ws16_network.node[7].content_store 	p_hit[7] 	-nan
scalar ws16_network.node[7].content_store 	hits[7] 	0
scalar ws16_network.node[7].content_store 	misses[7] 	0
scalar ws16_network.node[7].content_store 	decision_yes[7] 	0
scalar ws16_network.node[7].content_store 	decision_no[7] 	0
scalar ws16_network.node[7].content_store 	decision_ratio[7] 	0
scalar ws16_network.node[7].content_store 	correction_factor[7] 	0.0027225701061802
scalar ws16_network.node[7].content_store 	kappa[7] 	1
scalar ws16_network.node[8].core_layer 	interests[8] 	202252
scalar ws16_network.node[8].core_layer 	repo_load[8] 	202252
scalar ws16_network.node[8].core_layer 	data[8] 	0
scalar ws16_network.node[8].content_store 	p_hit[8] 	0
scalar ws16_network.node[8].content_store 	hits[8] 	0
scalar ws16_network.node[8].content_store 	misses[8] 	202252
scalar ws16_network.node[8].content_store 	decision_yes[8] 	0
scalar ws16_network.node[8].content_store 	decision_no[8] 	202252
scalar ws16_network.node[8].content_store 	decision_ratio[8] 	0
scalar ws16_network.node[8].content_store 	correction_factor[8] 	0.0027225701061802
scalar ws16_network.node[8].content_store 	kappa[8] 	1
scalar ws16_network.node[9].core_layer 	interests[9] 	52307
scalar ws16_network.node[9].core_layer 	data[9] 	43788
scalar ws16_network.node[9].content_store 	p_hit[9] 	0.16286539086547
scalar ws16_network.node[9].content_store 	hits[9] 	8519
scalar ws16_network.node[9].content_store 	misses[9] 	43788
scalar ws16_network.node[9].content_store 	decision_yes[9] 	785
scalar ws16_network.node[9].content_store 	decision_no[9] 	43003
scalar ws16_network.node[9].content_store 	decision_ratio[9] 	0.017927286014433
scalar ws16_network.node[9].content_store 	correction_factor[9] 	0.0027225701061802
scalar ws16_network.node[9].content_store 	kappa[9] 	1
scalar ws16_network.node[10].core_layer 	interests[10] 	126317
scalar ws16_network.node[10].core_layer 	repo_load[10] 	93821
scalar ws16_network.node[10].core_layer 	data[10] 	0
scalar ws16_network.node[10].content_store 	p_hit[10] 	0.25725753461529
scalar ws16_network.node[10].content_store 	hits[10] 	32496
scalar ws16_network.node[10].content_store 	misses[10] 	93821
scalar ws16_network.node[10].content_store 	decision_yes[10] 	2530
scalar ws16_network.node[10].content_store 	decision_no[10] 	91291
scalar ws16_network.node[10].content_store 	decision_ratio[10] 	0.026966244231036
scalar ws16_network.node[10].content_store 	correction_factor[10] 	0.0027225701061802
scalar ws16_network.node[10].content_store 	kappa[10] 	1
scalar ws16_network.node[11].core_layer 	interests[11] 	0
scalar ws16_network.node[11].core_layer 	data[11] 	0
scalar ws16_network.node[11].content_store 	p_hit[11] 	-nan
scalar ws16_network.node[11].content_store 	hits[11] 	0
scalar ws16_network.node[11].content_store 	misses[11] 	0
scalar ws16_network.node[11].content_store 	decision_yes[11] 	0
scalar ws16_network.node[11].content_store 	decision_no[11] 	0
scalar ws16_network.node[11].content_store 	decision_ratio[11] 	0
scalar ws16_network.node[11].content_store 	correction_factor[11] 	0.0027225701061802
scalar ws16_network.node[11].content_store 	kappa[11] 	1
scalar ws16_network.node[12].core_layer 	interests[12] 	179453
scalar ws16_network.node[12].core_layer 	data[12] 	161346
scalar ws16_network.node[12].content_store 	p_hit[12] 	0.092386307278229
scalar ws16_network.node[12].content_store 	hits[12] 	16579
scalar ws16_network.node[12].content_store 	misses[12] 	162874
scalar ws16_network.node[12].content_store 	decision_yes[12] 	1017
scalar ws16_network.node[12].content_store 	decision_no[12] 	160329
scalar ws16_network.node[12].content_store 	decision_ratio[12] 	0.0063032241270313
scalar ws16_network.node[12].content_store 	correction_factor[12] 	0.0027225701061802
scalar ws16_network.node[12].content_store 	kappa[12] 	1
scalar ws16_network.node[13].core_layer 	interests[13] 	170864
scalar ws16_network.node[13].core_layer 	repo_load[13] 	98638
scalar ws16_network.node[13].core_layer 	data[13] 	46334
scalar ws16_network.node[13].content_store 	p_hit[13] 	0.15153572431876
scalar ws16_network.node[13].content_store 	hits[13] 	25892
scalar ws16_network.node[13].content_store 	misses[13] 	144972
scalar ws16_network.node[13].content_store 	decision_yes[13] 	1100
scalar ws16_network.node[13].content_store 	decision_no[13] 	143872
scalar ws16_network.node[13].content_store 	decision_ratio[13] 	0.007587672102199
scalar ws16_network.node[13].content_store 	correction_factor[13] 	0.0027225701061802
scalar ws16_network.node[13].content_store 	kappa[13] 	1
scalar ws16_network.node[14].core_layer 	interests[14] 	137139
scalar ws16_network.node[14].core_layer 	data[14] 	122559
scalar ws16_network.node[14].content_store 	p_hit[14] 	0.10629361450791
scalar ws16_network.node[14].content_store 	hits[14] 	14577
scalar ws16_network.node[14].content_store 	misses[14] 	122562
scalar ws16_network.node[14].content_store 	decision_yes[14] 	1793
scalar ws16_network.node[14].content_store 	decision_no[14] 	120766
scalar ws16_network.node[14].content_store 	decision_ratio[14] 	0.014629688558164
scalar ws16_network.node[14].content_store 	correction_factor[14] 	0.0027225701061802
scalar ws16_network.node[14].content_store 	kappa[14] 	1
scalar ws16_network.node[15].core_layer 	interests[15] 	0
scalar ws16_network.node[15].core_layer 	data[15] 	0
scalar ws16_network.node[15].content_store 	p_hit[15] 	-nan
scalar ws16_network.node[15].content_store 	hits[15] 	0
scalar ws16_network.node[15].content_store 	misses[15] 	0
scalar ws16_network.node[15].content_store 	decision_yes[15] 	0
scalar ws16_network.node[15].content_store 	decision_no[15] 	0
scalar ws16_network.node[15].content_store 	decision_ratio[15] 	0
scalar ws16_network.node[15].content_store 	correction_factor[15] 	0.0027225701061802
scalar ws16_network.node[15].content_store 	kappa[15] 	1
scalar ws16_network.node[16].core_layer 	interests[16] 	118724
scalar ws16_network.node[16].core_layer 	data[16] 	109054
scalar ws16_network.node[16].content_store 	p_hit[16] 	0.081440989185001
scalar ws16_network.node[16].content_store 	hits[16] 	9669
scalar ws16_network.node[16].content_store 	misses[16] 	109055
scalar ws16_network.node[16].content_store 	decision_yes[16] 	84
scalar ws16_network.node[16].content_store 	decision_no[16] 	108970
scalar ws16_network.node[16].content_store 	decision_ratio[16] 	0.00077026060483797
scalar ws16_network.node[16].content_store 	correction_factor[16] 	0.0027225701061802
scalar ws16_network.node[16].content_store 	kappa[16] 	1
scalar ws16_network.node[17].core_layer 	interests[17] 	0
scalar ws16_network.node[17].core_layer 	data[17] 	0
scalar ws16_network.node[17].content_store 	p_hit[17] 	-nan
scalar ws16_network.node[17].content_store 	hits[17] 	0
scalar ws16_network.node[17].content_store 	misses[17] 	0
scalar ws16_network.node[17].content_store 	decision_yes[17] 	0
scalar ws16_network.node[17].content_store 	decision_no[17] 	0
scalar ws16_network.node[17].content_store 	decision_ratio[17] 	0
scalar ws16_network.node[17].content_store 	correction_factor[17] 	0.0027225701061802
scalar ws16_network.node[17].content_store 	kappa[17] 	1
scalar ws16_network.node[18].core_layer 	interests[18] 	179759
scalar ws16_network.node[18].core_layer 	data[18] 	171030
scalar ws16_network.node[18].content_store 	p_hit[18] 	0.034173532340523
scalar ws16_network.node[18].content_store 	hits[18] 	6143
scalar ws16_network.node[18].content_store 	misses[18] 	173616
scalar ws16_network.node[18].content_store 	decision_yes[18] 	892
scalar ws16_network.node[18].content_store 	decision_no[18] 	170138
scalar ws16_network.node[18].content_store 	decision_ratio[18] 	0.0052154592761504
scalar ws16_network.node[18].content_store 	correction_factor[18] 	0.0027225701061802
scalar ws16_network.node[18].content_store 	kappa[18] 	1
scalar ws16_network.node[19].core_layer 	interests[19] 	0
scalar ws16_network.node[19].core_layer 	data[19] 	0
scalar ws16_network.node[19].content_store 	p_hit[19] 	-nan
scalar ws16_network.node[19].content_store 	hits[19] 	0
scalar ws16_network.node[19].content_store 	misses[19] 	0
scalar ws16_network.node[19].content_store 	decision_yes[19] 	0
scalar ws16_network.node[19].content_store 	decision_no[19] 	0
scalar ws16_network.node[19].content_store 	decision_ratio[19] 	0
scalar ws16_network.node[19].content_store 	correction_factor[19] 	0.0027225701061802
scalar ws16_network.node[19].content_store 	kappa[19] 	1
scalar ws16_network.node[20].core_layer 	interests[20] 	179833
scalar ws16_network.node[20].core_layer 	data[20] 	169815
scalar ws16_network.node[20].content_store 	p_hit[20] 	0.044407867299105
scalar ws16_network.node[20].content_store 	hits[20] 	7986
scalar ws16_network.node[20].content_store 	misses[20] 	171847
scalar ws16_network.node[20].content_store 	decision_yes[20] 	992
scalar ws16_network.node[20].content_store 	decision_no[20] 	168823
scalar ws16_network.node[20].content_store 	decision_ratio[20] 	0.0058416512086683
scalar ws16_network.node[20].content_store 	correction_factor[20] 	0.0027225701061802
scalar ws16_network.node[20].content_store 	kappa[20] 	1
scalar ws16_network.node[21].core_layer 	interests[21] 	0
scalar ws16_network.node[21].core_layer 	data[21] 	0
scalar ws16_network.node[21].content_store 	p_hit[21] 	-nan
scalar ws16_network.node[21].content_store 	hits[21] 	0
scalar ws16_network.node[21].content_store 	misses[21] 	0
scalar ws16_network.node[21].content_store 	decision_yes[21] 	0
scalar ws16_network.node[21].content_store 	decision_no[21] 	0
scalar ws16_network.node[21].content_store 	decision_ratio[21] 	0
scalar ws16_network.node[21].content_store 	correction_factor[21] 	0.0027225701061802
scalar ws16_network.node[21].content_store 	kappa[21] 	1
scalar ws16_network.client[12] 	hdistance[12] 	2.5070956863847
scalar ws16_network.client[12] 	downloads[12] 	177925
scalar ws16_network.client[12] 	avg_time[12] 	0.009045951448
scalar ws16_network.client[12] 	interests_sent[12] 	179453
scalar ws16_network.client[18] 	hdistance[18] 	3.3696500031043
scalar ws16_network.client[18] 	downloads[18] 	177173
scalar ws16_network.client[18] 	avg_time[18] 	0.013605615368
scalar ws16_network.client[18] 	interests_sent[18] 	179759
scalar ws16_network.client[20] 	hdistance[20] 	2.8596802042733
scalar ws16_network.client[20] 	downloads[20] 	177801
scalar ws16_network.client[20] 	avg_time[20] 	0.010861084204
scalar ws16_network.client[20] 	interests_sent[20] 	179833
