version 2
run General-1-20141031-11:55:14-7935
attr D costaware0.01
attr F spr
attr R lru
attr a 1
attr configname General
attr csize 1e3
attr ctlg 1e5
attr datetime 20141031-11:55:14
attr experiment General
attr inifile omnetpp.ini
attr iterationvars "$rep=17, $lambda=100, $a=1, $ctlg=1e5, $F=spr, $ttl=10, $D=costaware0.01, $R=lru, $csize=1e3, $window=60, $variance=0.05, $mytime=1800, $kappa=1, $priceratiovalue=10, $pricebits=0"
attr iterationvars2 "$rep=17, $lambda=100, $a=1, $ctlg=1e5, $F=spr, $ttl=10, $D=costaware0.01, $R=lru, $csize=1e3, $window=60, $variance=0.05, $mytime=1800, $kappa=1, $priceratiovalue=10, $pricebits=0, $repetition=0"
attr kappa 1
attr lambda 100
attr measurement "$rep=17, $lambda=100, $a=1, $ctlg=1e5, $F=spr, $ttl=10, $D=costaware0.01, $R=lru, $csize=1e3, $window=60, $variance=0.05, $mytime=1800, $kappa=1, $priceratiovalue=10, $pricebits=0"
attr mytime 1800
attr network networks.ws${rep}_network
attr pricebits 0
attr priceratiovalue 10
attr processid 7935
attr rep 17
attr repetition 0
attr replication #0
attr resultdir results
attr runnumber 1
attr seedset 17
attr ttl 10
attr variance 0.05
attr window 60

scalar . 	a 	1
scalar . 	csize 	1e3
scalar . 	ctlg 	1e5
scalar . 	kappa 	1
scalar . 	lambda 	100
scalar . 	mytime 	1800
scalar . 	pricebits 	0
scalar . 	priceratiovalue 	10
scalar . 	rep 	17
scalar . 	ttl 	10
scalar . 	variance 	0.05
scalar . 	window 	60
scalar ws17_network.content_distribution 	repo-0 	21
scalar ws17_network.content_distribution 	repo-1 	11
scalar ws17_network.content_distribution 	repo-2 	13
scalar ws17_network.content_distribution 	client-0 	0
scalar ws17_network.content_distribution 	client-1 	5
scalar ws17_network.content_distribution 	client-2 	10
scalar ws17_network.content_distribution 	repo-0_card 	33434
scalar ws17_network.content_distribution 	repo-0_price 	10
scalar ws17_network.content_distribution 	repo-1_card 	33236
scalar ws17_network.content_distribution 	repo-1_price 	0
scalar ws17_network.content_distribution 	repo-2_card 	33330
scalar ws17_network.content_distribution 	repo-2_price 	1
scalar ws17_network.statistics 	repo_popularity[0] 	0.28775972584778
scalar ws17_network.statistics 	repo_popularity[1] 	0.38489717054386
scalar ws17_network.statistics 	repo_popularity[2] 	0.32734310360837
scalar ws17_network.statistics 	stabilization_time 	36060
scalar ws17_network.statistics 	p_hit 	0.089052050839772
scalar ws17_network.statistics 	interests 	76078.590909091
scalar ws17_network.statistics 	data 	51542.136363636
scalar ws17_network.statistics 	hdistance 	2.8449470857378
scalar ws17_network.statistics 	avg_time 	0.010947876755
scalar ws17_network.statistics 	downloads 	534046
scalar ws17_network.statistics 	total_cost 	977475
scalar ws17_network.statistics 	total_replicas 	100000
scalar ws17_network.statistics 	inner_hit 	0.27925497054561
scalar ws17_network.statistics 	interests_sent 	539805
scalar ws17_network.node[0].core_layer 	interests[0] 	179912
scalar ws17_network.node[0].core_layer 	data[0] 	164407
scalar ws17_network.node[0].core_layer 	repo_int[0] 	384911
scalar ws17_network.node[0].content_store 	p_hit[0] 	0.07370825737027
scalar ws17_network.node[0].content_store 	hits[0] 	13261
scalar ws17_network.node[0].content_store 	misses[0] 	166651
scalar ws17_network.node[0].content_store 	decision_yes[0] 	916
scalar ws17_network.node[0].content_store 	decision_no[0] 	163491
scalar ws17_network.node[0].content_store 	decision_ratio[0] 	0.0055715389247416
scalar ws17_network.node[0].content_store 	correction_factor[0] 	0.0027225701061802
scalar ws17_network.node[0].content_store 	kappa[0] 	1
scalar ws17_network.node[1].core_layer 	interests[1] 	0
scalar ws17_network.node[1].core_layer 	data[1] 	0
scalar ws17_network.node[1].content_store 	p_hit[1] 	-nan
scalar ws17_network.node[1].content_store 	hits[1] 	0
scalar ws17_network.node[1].content_store 	misses[1] 	0
scalar ws17_network.node[1].content_store 	decision_yes[1] 	0
scalar ws17_network.node[1].content_store 	decision_no[1] 	0
scalar ws17_network.node[1].content_store 	decision_ratio[1] 	0
scalar ws17_network.node[1].content_store 	correction_factor[1] 	0.0027225701061802
scalar ws17_network.node[1].content_store 	kappa[1] 	1
scalar ws17_network.node[2].core_layer 	interests[2] 	46707
scalar ws17_network.node[2].core_layer 	data[2] 	38575
scalar ws17_network.node[2].content_store 	p_hit[2] 	0.17410666495386
scalar ws17_network.node[2].content_store 	hits[2] 	8132
scalar ws17_network.node[2].content_store 	misses[2] 	38575
scalar ws17_network.node[2].content_store 	decision_yes[2] 	89
scalar ws17_network.node[2].content_store 	decision_no[2] 	38486
scalar ws17_network.node[2].content_store 	decision_ratio[2] 	0.0023071937783539
scalar ws17_network.node[2].content_store 	correction_factor[2] 	0.0027225701061802
scalar ws17_network.node[2].content_store 	kappa[2] 	1
scalar ws17_network.node[3].core_layer 	interests[3] 	0
scalar ws17_network.node[3].core_layer 	data[3] 	0
scalar ws17_network.node[3].content_store 	p_hit[3] 	-nan
scalar ws17_network.node[3].content_store 	hits[3] 	0
scalar ws17_network.node[3].content_store 	misses[3] 	0
scalar ws17_network.node[3].content_store 	decision_yes[3] 	0
scalar ws17_network.node[3].content_store 	decision_no[3] 	0
scalar ws17_network.node[3].content_store 	decision_ratio[3] 	0
scalar ws17_network.node[3].content_store 	correction_factor[3] 	0.0027225701061802
scalar ws17_network.node[3].content_store 	kappa[3] 	1
scalar ws17_network.node[4].core_layer 	interests[4] 	0
scalar ws17_network.node[4].core_layer 	data[4] 	0
scalar ws17_network.node[4].content_store 	p_hit[4] 	-nan
scalar ws17_network.node[4].content_store 	hits[4] 	0
scalar ws17_network.node[4].content_store 	misses[4] 	0
scalar ws17_network.node[4].content_store 	decision_yes[4] 	0
scalar ws17_network.node[4].content_store 	decision_no[4] 	0
scalar ws17_network.node[4].content_store 	decision_ratio[4] 	0
scalar ws17_network.node[4].content_store 	correction_factor[4] 	0.0027225701061802
scalar ws17_network.node[4].content_store 	kappa[4] 	1
scalar ws17_network.node[5].core_layer 	interests[5] 	218985
scalar ws17_network.node[5].core_layer 	data[5] 	204094
scalar ws17_network.node[5].content_store 	p_hit[5] 	0.060036075530287
scalar ws17_network.node[5].content_store 	hits[5] 	13147
scalar ws17_network.node[5].content_store 	misses[5] 	205838
scalar ws17_network.node[5].content_store 	decision_yes[5] 	970
scalar ws17_network.node[5].content_store 	decision_no[5] 	203124
scalar ws17_network.node[5].content_store 	decision_ratio[5] 	0.0047527119856537
scalar ws17_network.node[5].content_store 	correction_factor[5] 	0.0027225701061802
scalar ws17_network.node[5].content_store 	kappa[5] 	1
scalar ws17_network.node[6].core_layer 	interests[6] 	118113
scalar ws17_network.node[6].core_layer 	data[6] 	107941
scalar ws17_network.node[6].content_store 	p_hit[6] 	0.086129384572401
scalar ws17_network.node[6].content_store 	hits[6] 	10173
scalar ws17_network.node[6].content_store 	misses[6] 	107940
scalar ws17_network.node[6].content_store 	decision_yes[6] 	795
scalar ws17_network.node[6].content_store 	decision_no[6] 	107146
scalar ws17_network.node[6].content_store 	decision_ratio[6] 	0.0073651346568959
scalar ws17_network.node[6].content_store 	correction_factor[6] 	0.0027225701061802
scalar ws17_network.node[6].content_store 	kappa[6] 	1
scalar ws17_network.node[7].core_layer 	interests[7] 	67638
scalar ws17_network.node[7].core_layer 	data[7] 	67638
scalar ws17_network.node[7].content_store 	p_hit[7] 	0
scalar ws17_network.node[7].content_store 	hits[7] 	0
scalar ws17_network.node[7].content_store 	misses[7] 	67638
scalar ws17_network.node[7].content_store 	decision_yes[7] 	0
scalar ws17_network.node[7].content_store 	decision_no[7] 	67638
scalar ws17_network.node[7].content_store 	decision_ratio[7] 	0
scalar ws17_network.node[7].content_store 	correction_factor[7] 	0.0027225701061802
scalar ws17_network.node[7].content_store 	kappa[7] 	1
scalar ws17_network.node[8].core_layer 	interests[8] 	123784
scalar ws17_network.node[8].core_layer 	data[8] 	117819
scalar ws17_network.node[8].content_store 	p_hit[8] 	0.048188780456279
scalar ws17_network.node[8].content_store 	hits[8] 	5965
scalar ws17_network.node[8].content_store 	misses[8] 	117819
scalar ws17_network.node[8].content_store 	decision_yes[8] 	88
scalar ws17_network.node[8].content_store 	decision_no[8] 	117731
scalar ws17_network.node[8].content_store 	decision_ratio[8] 	0.00074690839338307
scalar ws17_network.node[8].content_store 	correction_factor[8] 	0.0027225701061802
scalar ws17_network.node[8].content_store 	kappa[8] 	1
scalar ws17_network.node[9].core_layer 	interests[9] 	47563
scalar ws17_network.node[9].core_layer 	data[9] 	36881
scalar ws17_network.node[9].content_store 	p_hit[9] 	0.22458633811997
scalar ws17_network.node[9].content_store 	hits[9] 	10682
scalar ws17_network.node[9].content_store 	misses[9] 	36881
scalar ws17_network.node[9].content_store 	decision_yes[9] 	762
scalar ws17_network.node[9].content_store 	decision_no[9] 	36119
scalar ws17_network.node[9].content_store 	decision_ratio[9] 	0.020661044982511
scalar ws17_network.node[9].content_store 	correction_factor[9] 	0.0027225701061802
scalar ws17_network.node[9].content_store 	kappa[9] 	1
scalar ws17_network.node[10].core_layer 	interests[10] 	179483
scalar ws17_network.node[10].core_layer 	data[10] 	171349
scalar ws17_network.node[10].content_store 	p_hit[10] 	0.034989386181421
scalar ws17_network.node[10].content_store 	hits[10] 	6280
scalar ws17_network.node[10].content_store 	misses[10] 	173203
scalar ws17_network.node[10].content_store 	decision_yes[10] 	885
scalar ws17_network.node[10].content_store 	decision_no[10] 	170464
scalar ws17_network.node[10].content_store 	decision_ratio[10] 	0.0051648973731974
scalar ws17_network.node[10].content_store 	correction_factor[10] 	0.0027225701061802
scalar ws17_network.node[10].content_store 	kappa[10] 	1
scalar ws17_network.node[11].core_layer 	interests[11] 	293397
scalar ws17_network.node[11].core_layer 	repo_load[11] 	203351
scalar ws17_network.node[11].core_layer 	data[11] 	78129
scalar ws17_network.node[11].content_store 	p_hit[11] 	0.040617320558833
scalar ws17_network.node[11].content_store 	hits[11] 	11917
scalar ws17_network.node[11].content_store 	misses[11] 	281480
scalar ws17_network.node[11].content_store 	decision_yes[11] 	925
scalar ws17_network.node[11].content_store 	decision_no[11] 	280555
scalar ws17_network.node[11].content_store 	decision_ratio[11] 	0.0032862015063237
scalar ws17_network.node[11].content_store 	correction_factor[11] 	0.0027225701061802
scalar ws17_network.node[11].content_store 	kappa[11] 	1
scalar ws17_network.node[12].core_layer 	interests[12] 	0
scalar ws17_network.node[12].core_layer 	data[12] 	0
scalar ws17_network.node[12].content_store 	p_hit[12] 	-nan
scalar ws17_network.node[12].content_store 	hits[12] 	0
scalar ws17_network.node[12].content_store 	misses[12] 	0
scalar ws17_network.node[12].content_store 	decision_yes[12] 	0
scalar ws17_network.node[12].content_store 	decision_no[12] 	0
scalar ws17_network.node[12].content_store 	decision_ratio[12] 	0
scalar ws17_network.node[12].content_store 	correction_factor[12] 	0.0027225701061802
scalar ws17_network.node[12].content_store 	kappa[12] 	1
scalar ws17_network.node[13].core_layer 	interests[13] 	129213
scalar ws17_network.node[13].core_layer 	repo_load[13] 	93125
scalar ws17_network.node[13].core_layer 	data[13] 	0
scalar ws17_network.node[13].content_store 	p_hit[13] 	0.2792907834351
scalar ws17_network.node[13].content_store 	hits[13] 	36088
scalar ws17_network.node[13].content_store 	misses[13] 	93125
scalar ws17_network.node[13].content_store 	decision_yes[13] 	273
scalar ws17_network.node[13].content_store 	decision_no[13] 	92852
scalar ws17_network.node[13].content_store 	decision_ratio[13] 	0.0029315436241611
scalar ws17_network.node[13].content_store 	correction_factor[13] 	0.0027225701061802
scalar ws17_network.node[13].content_store 	kappa[13] 	1
scalar ws17_network.node[14].core_layer 	interests[14] 	112892
scalar ws17_network.node[14].core_layer 	data[14] 	100387
scalar ws17_network.node[14].content_store 	p_hit[14] 	0.11076072706658
scalar ws17_network.node[14].content_store 	hits[14] 	12504
scalar ws17_network.node[14].content_store 	misses[14] 	100388
scalar ws17_network.node[14].content_store 	decision_yes[14] 	798
scalar ws17_network.node[14].content_store 	decision_no[14] 	99589
scalar ws17_network.node[14].content_store 	decision_ratio[14] 	0.0079492364549195
scalar ws17_network.node[14].content_store 	correction_factor[14] 	0.0027225701061802
scalar ws17_network.node[14].content_store 	kappa[14] 	1
scalar ws17_network.node[15].core_layer 	interests[15] 	0
scalar ws17_network.node[15].core_layer 	data[15] 	0
scalar ws17_network.node[15].content_store 	p_hit[15] 	-nan
scalar ws17_network.node[15].content_store 	hits[15] 	0
scalar ws17_network.node[15].content_store 	misses[15] 	0
scalar ws17_network.node[15].content_store 	decision_yes[15] 	0
scalar ws17_network.node[15].content_store 	decision_no[15] 	0
scalar ws17_network.node[15].content_store 	decision_ratio[15] 	0
scalar ws17_network.node[15].content_store 	correction_factor[15] 	0.0027225701061802
scalar ws17_network.node[15].content_store 	kappa[15] 	1
scalar ws17_network.node[16].core_layer 	interests[16] 	0
scalar ws17_network.node[16].core_layer 	data[16] 	0
scalar ws17_network.node[16].content_store 	p_hit[16] 	-nan
scalar ws17_network.node[16].content_store 	hits[16] 	0
scalar ws17_network.node[16].content_store 	misses[16] 	0
scalar ws17_network.node[16].content_store 	decision_yes[16] 	0
scalar ws17_network.node[16].content_store 	decision_no[16] 	0
scalar ws17_network.node[16].content_store 	decision_ratio[16] 	0
scalar ws17_network.node[16].content_store 	correction_factor[16] 	0.0027225701061802
scalar ws17_network.node[16].content_store 	kappa[16] 	1
scalar ws17_network.node[17].core_layer 	interests[17] 	0
scalar ws17_network.node[17].core_layer 	data[17] 	0
scalar ws17_network.node[17].content_store 	p_hit[17] 	-nan
scalar ws17_network.node[17].content_store 	hits[17] 	0
scalar ws17_network.node[17].content_store 	misses[17] 	0
scalar ws17_network.node[17].content_store 	decision_yes[17] 	0
scalar ws17_network.node[17].content_store 	decision_no[17] 	0
scalar ws17_network.node[17].content_store 	decision_ratio[17] 	0
scalar ws17_network.node[17].content_store 	correction_factor[17] 	0.0027225701061802
scalar ws17_network.node[17].content_store 	kappa[17] 	1
scalar ws17_network.node[18].core_layer 	interests[18] 	0
scalar ws17_network.node[18].core_layer 	data[18] 	0
scalar ws17_network.node[18].content_store 	p_hit[18] 	-nan
scalar ws17_network.node[18].content_store 	hits[18] 	0
scalar ws17_network.node[18].content_store 	misses[18] 	0
scalar ws17_network.node[18].content_store 	decision_yes[18] 	0
scalar ws17_network.node[18].content_store 	decision_no[18] 	0
scalar ws17_network.node[18].content_store 	decision_ratio[18] 	0
scalar ws17_network.node[18].content_store 	correction_factor[18] 	0.0027225701061802
scalar ws17_network.node[18].content_store 	kappa[18] 	1
scalar ws17_network.node[19].core_layer 	interests[19] 	0
scalar ws17_network.node[19].core_layer 	data[19] 	0
scalar ws17_network.node[19].content_store 	p_hit[19] 	-nan
scalar ws17_network.node[19].content_store 	hits[19] 	0
scalar ws17_network.node[19].content_store 	misses[19] 	0
scalar ws17_network.node[19].content_store 	decision_yes[19] 	0
scalar ws17_network.node[19].content_store 	decision_no[19] 	0
scalar ws17_network.node[19].content_store 	decision_ratio[19] 	0
scalar ws17_network.node[19].content_store 	correction_factor[19] 	0.0027225701061802
scalar ws17_network.node[19].content_store 	kappa[19] 	1
scalar ws17_network.node[20].core_layer 	interests[20] 	51516
scalar ws17_network.node[20].core_layer 	data[20] 	46707
scalar ws17_network.node[20].content_store 	p_hit[20] 	0.093349638947123
scalar ws17_network.node[20].content_store 	hits[20] 	4809
scalar ws17_network.node[20].content_store 	misses[20] 	46707
scalar ws17_network.node[20].content_store 	decision_yes[20] 	83
scalar ws17_network.node[20].content_store 	decision_no[20] 	46624
scalar ws17_network.node[20].content_store 	decision_ratio[20] 	0.0017770355621213
scalar ws17_network.node[20].content_store 	correction_factor[20] 	0.0027225701061802
scalar ws17_network.node[20].content_store 	kappa[20] 	1
scalar ws17_network.node[21].core_layer 	interests[21] 	104526
scalar ws17_network.node[21].core_layer 	repo_load[21] 	88435
scalar ws17_network.node[21].core_layer 	data[21] 	0
scalar ws17_network.node[21].content_store 	p_hit[21] 	0.1539425597459
scalar ws17_network.node[21].content_store 	hits[21] 	16091
scalar ws17_network.node[21].content_store 	misses[21] 	88435
scalar ws17_network.node[21].content_store 	decision_yes[21] 	2404
scalar ws17_network.node[21].content_store 	decision_no[21] 	86031
scalar ws17_network.node[21].content_store 	decision_ratio[21] 	0.027183807316108
scalar ws17_network.node[21].content_store 	correction_factor[21] 	0.0027225701061802
scalar ws17_network.node[21].content_store 	kappa[21] 	1
scalar ws17_network.client[0] 	hdistance[0] 	3.2677353265642
scalar ws17_network.client[0] 	downloads[0] 	177668
scalar ws17_network.client[0] 	avg_time[0] 	0.013181880426
scalar ws17_network.client[0] 	interests_sent[0] 	179912
scalar ws17_network.client[5] 	hdistance[5] 	2.4689648613419
scalar ws17_network.client[5] 	downloads[5] 	178749
scalar ws17_network.client[5] 	avg_time[5] 	0.008949095405
scalar ws17_network.client[5] 	interests_sent[5] 	180410
scalar ws17_network.client[10] 	hdistance[10] 	2.7981410693074
scalar ws17_network.client[10] 	downloads[10] 	177629
scalar ws17_network.client[10] 	avg_time[10] 	0.010712654436
scalar ws17_network.client[10] 	interests_sent[10] 	179483
