version 2
run General-1-20141030-18:28:45-22410
attr D costaware0.01
attr F spr
attr R lru
attr a 1
attr configname General
attr csize 1e3
attr ctlg 1e5
attr datetime 20141030-18:28:45
attr experiment General
attr inifile omnetpp.ini
attr iterationvars "$rep=1, $lambda=100, $a=1, $ctlg=1e5, $F=spr, $ttl=10, $D=costaware0.01, $R=lru, $csize=1e3, $window=60, $variance=0.05, $mytime=1800, $kappa=1, $priceratiovalue=10, $pricebits=0"
attr iterationvars2 "$rep=1, $lambda=100, $a=1, $ctlg=1e5, $F=spr, $ttl=10, $D=costaware0.01, $R=lru, $csize=1e3, $window=60, $variance=0.05, $mytime=1800, $kappa=1, $priceratiovalue=10, $pricebits=0, $repetition=0"
attr kappa 1
attr lambda 100
attr measurement "$rep=1, $lambda=100, $a=1, $ctlg=1e5, $F=spr, $ttl=10, $D=costaware0.01, $R=lru, $csize=1e3, $window=60, $variance=0.05, $mytime=1800, $kappa=1, $priceratiovalue=10, $pricebits=0"
attr mytime 1800
attr network networks.ws${rep}_network
attr pricebits 0
attr priceratiovalue 10
attr processid 22410
attr rep 1
attr repetition 0
attr replication #0
attr resultdir results
attr runnumber 1
attr seedset 1
attr ttl 10
attr variance 0.05
attr window 60

scalar . 	a 	1
scalar . 	csize 	1e3
scalar . 	ctlg 	1e5
scalar . 	kappa 	1
scalar . 	lambda 	100
scalar . 	mytime 	1800
scalar . 	pricebits 	0
scalar . 	priceratiovalue 	10
scalar . 	rep 	1
scalar . 	ttl 	10
scalar . 	variance 	0.05
scalar . 	window 	60
scalar ws1_network.content_distribution 	repo-0 	14
scalar ws1_network.content_distribution 	repo-1 	5
scalar ws1_network.content_distribution 	repo-2 	1
scalar ws1_network.content_distribution 	client-0 	8
scalar ws1_network.content_distribution 	client-1 	18
scalar ws1_network.content_distribution 	client-2 	9
scalar ws1_network.content_distribution 	repo-0_card 	33398
scalar ws1_network.content_distribution 	repo-0_price 	0
scalar ws1_network.content_distribution 	repo-1_card 	33040
scalar ws1_network.content_distribution 	repo-1_price 	1
scalar ws1_network.content_distribution 	repo-2_card 	33562
scalar ws1_network.content_distribution 	repo-2_price 	10
scalar ws1_network.statistics 	repo_popularity[0] 	0.42710281340035
scalar ws1_network.statistics 	repo_popularity[1] 	0.27050451919503
scalar ws1_network.statistics 	repo_popularity[2] 	0.30239266740463
scalar ws1_network.statistics 	stabilization_time 	36060
scalar ws1_network.statistics 	p_hit 	0.07201545920005
scalar ws1_network.statistics 	interests 	76188.818181818
scalar ws1_network.statistics 	data 	51685.954545455
scalar ws1_network.statistics 	hdistance 	2.9125285788954
scalar ws1_network.statistics 	avg_time 	0.011021769131
scalar ws1_network.statistics 	downloads 	532308
scalar ws1_network.statistics 	total_cost 	1052167
scalar ws1_network.statistics 	total_replicas 	100000
scalar ws1_network.statistics 	inner_hit 	0.2294423529235
scalar ws1_network.statistics 	interests_sent 	539054
scalar ws1_network.node[0].core_layer 	interests[0] 	0
scalar ws1_network.node[0].core_layer 	data[0] 	0
scalar ws1_network.node[0].core_layer 	repo_int[0] 	410174
scalar ws1_network.node[0].content_store 	p_hit[0] 	-nan
scalar ws1_network.node[0].content_store 	hits[0] 	0
scalar ws1_network.node[0].content_store 	misses[0] 	0
scalar ws1_network.node[0].content_store 	decision_yes[0] 	0
scalar ws1_network.node[0].content_store 	decision_no[0] 	0
scalar ws1_network.node[0].content_store 	decision_ratio[0] 	0
scalar ws1_network.node[0].content_store 	correction_factor[0] 	0.0027225701061802
scalar ws1_network.node[0].content_store 	kappa[0] 	1
scalar ws1_network.node[1].core_layer 	interests[1] 	116028
scalar ws1_network.node[1].core_layer 	repo_load[1] 	96078
scalar ws1_network.node[1].core_layer 	data[1] 	0
scalar ws1_network.node[1].content_store 	p_hit[1] 	0.171941255559
scalar ws1_network.node[1].content_store 	hits[1] 	19950
scalar ws1_network.node[1].content_store 	misses[1] 	96078
scalar ws1_network.node[1].content_store 	decision_yes[1] 	2642
scalar ws1_network.node[1].content_store 	decision_no[1] 	93436
scalar ws1_network.node[1].content_store 	decision_ratio[1] 	0.027498490809551
scalar ws1_network.node[1].content_store 	correction_factor[1] 	0.0027225701061802
scalar ws1_network.node[1].content_store 	kappa[1] 	1
scalar ws1_network.node[2].core_layer 	interests[2] 	42723
scalar ws1_network.node[2].core_layer 	data[2] 	36228
scalar ws1_network.node[2].content_store 	p_hit[2] 	0.15202584088196
scalar ws1_network.node[2].content_store 	hits[2] 	6495
scalar ws1_network.node[2].content_store 	misses[2] 	36228
scalar ws1_network.node[2].content_store 	decision_yes[2] 	844
scalar ws1_network.node[2].content_store 	decision_no[2] 	35384
scalar ws1_network.node[2].content_store 	decision_ratio[2] 	0.023296897427404
scalar ws1_network.node[2].content_store 	correction_factor[2] 	0.0027225701061802
scalar ws1_network.node[2].content_store 	kappa[2] 	1
scalar ws1_network.node[3].core_layer 	interests[3] 	44172
scalar ws1_network.node[3].core_layer 	data[3] 	40602
scalar ws1_network.node[3].content_store 	p_hit[3] 	0.080797790455492
scalar ws1_network.node[3].content_store 	hits[3] 	3569
scalar ws1_network.node[3].content_store 	misses[3] 	40603
scalar ws1_network.node[3].content_store 	decision_yes[3] 	807
scalar ws1_network.node[3].content_store 	decision_no[3] 	39795
scalar ws1_network.node[3].content_store 	decision_ratio[3] 	0.019875868183833
scalar ws1_network.node[3].content_store 	correction_factor[3] 	0.0027225701061802
scalar ws1_network.node[3].content_store 	kappa[3] 	1
scalar ws1_network.node[4].core_layer 	interests[4] 	162921
scalar ws1_network.node[4].core_layer 	data[4] 	158431
scalar ws1_network.node[4].content_store 	p_hit[4] 	0.027559369264858
scalar ws1_network.node[4].content_store 	hits[4] 	4490
scalar ws1_network.node[4].content_store 	misses[4] 	158431
scalar ws1_network.node[4].content_store 	decision_yes[4] 	913
scalar ws1_network.node[4].content_store 	decision_no[4] 	157518
scalar ws1_network.node[4].content_store 	decision_ratio[4] 	0.0057627610757996
scalar ws1_network.node[4].content_store 	correction_factor[4] 	0.0027225701061802
scalar ws1_network.node[4].content_store 	kappa[4] 	1
scalar ws1_network.node[5].core_layer 	interests[5] 	267645
scalar ws1_network.node[5].core_layer 	repo_load[5] 	91387
scalar ws1_network.node[5].core_layer 	data[5] 	147694
scalar ws1_network.node[5].content_store 	p_hit[5] 	0.10138056007024
scalar ws1_network.node[5].content_store 	hits[5] 	27134
scalar ws1_network.node[5].content_store 	misses[5] 	240511
scalar ws1_network.node[5].content_store 	decision_yes[5] 	254
scalar ws1_network.node[5].content_store 	decision_no[5] 	238827
scalar ws1_network.node[5].content_store 	decision_ratio[5] 	0.0010624014455352
scalar ws1_network.node[5].content_store 	correction_factor[5] 	0.0027225701061802
scalar ws1_network.node[5].content_store 	kappa[5] 	1
scalar ws1_network.node[6].core_layer 	interests[6] 	0
scalar ws1_network.node[6].core_layer 	data[6] 	0
scalar ws1_network.node[6].content_store 	p_hit[6] 	-nan
scalar ws1_network.node[6].content_store 	hits[6] 	0
scalar ws1_network.node[6].content_store 	misses[6] 	0
scalar ws1_network.node[6].content_store 	decision_yes[6] 	0
scalar ws1_network.node[6].content_store 	decision_no[6] 	0
scalar ws1_network.node[6].content_store 	decision_ratio[6] 	0
scalar ws1_network.node[6].content_store 	correction_factor[6] 	0.0027225701061802
scalar ws1_network.node[6].content_store 	kappa[6] 	1
scalar ws1_network.node[7].core_layer 	interests[7] 	119125
scalar ws1_network.node[7].core_layer 	data[7] 	112499
scalar ws1_network.node[7].content_store 	p_hit[7] 	0.055605456453305
scalar ws1_network.node[7].content_store 	hits[7] 	6624
scalar ws1_network.node[7].content_store 	misses[7] 	112501
scalar ws1_network.node[7].content_store 	decision_yes[7] 	64
scalar ws1_network.node[7].content_store 	decision_no[7] 	112435
scalar ws1_network.node[7].content_store 	decision_ratio[7] 	0.00056889394572396
scalar ws1_network.node[7].content_store 	correction_factor[7] 	0.0027225701061802
scalar ws1_network.node[7].content_store 	kappa[7] 	1
scalar ws1_network.node[8].core_layer 	interests[8] 	179817
scalar ws1_network.node[8].core_layer 	data[8] 	161548
scalar ws1_network.node[8].content_store 	p_hit[8] 	0.088156292230434
scalar ws1_network.node[8].content_store 	hits[8] 	15852
scalar ws1_network.node[8].content_store 	misses[8] 	163965
scalar ws1_network.node[8].content_store 	decision_yes[8] 	1006
scalar ws1_network.node[8].content_store 	decision_no[8] 	160542
scalar ws1_network.node[8].content_store 	decision_ratio[8] 	0.006227251343254
scalar ws1_network.node[8].content_store 	correction_factor[8] 	0.0027225701061802
scalar ws1_network.node[8].content_store 	kappa[8] 	1
scalar ws1_network.node[9].core_layer 	interests[9] 	179451
scalar ws1_network.node[9].core_layer 	data[9] 	162920
scalar ws1_network.node[9].content_store 	p_hit[9] 	0.07784297663429
scalar ws1_network.node[9].content_store 	hits[9] 	13969
scalar ws1_network.node[9].content_store 	misses[9] 	165482
scalar ws1_network.node[9].content_store 	decision_yes[9] 	980
scalar ws1_network.node[9].content_store 	decision_no[9] 	161940
scalar ws1_network.node[9].content_store 	decision_ratio[9] 	0.0060152221949423
scalar ws1_network.node[9].content_store 	correction_factor[9] 	0.0027225701061802
scalar ws1_network.node[9].content_store 	kappa[9] 	1
scalar ws1_network.node[10].core_layer 	interests[10] 	0
scalar ws1_network.node[10].core_layer 	data[10] 	0
scalar ws1_network.node[10].content_store 	p_hit[10] 	-nan
scalar ws1_network.node[10].content_store 	hits[10] 	0
scalar ws1_network.node[10].content_store 	misses[10] 	0
scalar ws1_network.node[10].content_store 	decision_yes[10] 	0
scalar ws1_network.node[10].content_store 	decision_no[10] 	0
scalar ws1_network.node[10].content_store 	decision_ratio[10] 	0
scalar ws1_network.node[10].content_store 	correction_factor[10] 	0.0027225701061802
scalar ws1_network.node[10].content_store 	kappa[10] 	1
scalar ws1_network.node[11].core_layer 	interests[11] 	0
scalar ws1_network.node[11].core_layer 	data[11] 	0
scalar ws1_network.node[11].content_store 	p_hit[11] 	-nan
scalar ws1_network.node[11].content_store 	hits[11] 	0
scalar ws1_network.node[11].content_store 	misses[11] 	0
scalar ws1_network.node[11].content_store 	decision_yes[11] 	0
scalar ws1_network.node[11].content_store 	decision_no[11] 	0
scalar ws1_network.node[11].content_store 	decision_ratio[11] 	0
scalar ws1_network.node[11].content_store 	correction_factor[11] 	0.0027225701061802
scalar ws1_network.node[11].content_store 	kappa[11] 	1
scalar ws1_network.node[12].core_layer 	interests[12] 	0
scalar ws1_network.node[12].core_layer 	data[12] 	0
scalar ws1_network.node[12].content_store 	p_hit[12] 	-nan
scalar ws1_network.node[12].content_store 	hits[12] 	0
scalar ws1_network.node[12].content_store 	misses[12] 	0
scalar ws1_network.node[12].content_store 	decision_yes[12] 	0
scalar ws1_network.node[12].content_store 	decision_no[12] 	0
scalar ws1_network.node[12].content_store 	decision_ratio[12] 	0
scalar ws1_network.node[12].content_store 	correction_factor[12] 	0.0027225701061802
scalar ws1_network.node[12].content_store 	kappa[12] 	1
scalar ws1_network.node[13].core_layer 	interests[13] 	0
scalar ws1_network.node[13].core_layer 	data[13] 	0
scalar ws1_network.node[13].content_store 	p_hit[13] 	-nan
scalar ws1_network.node[13].content_store 	hits[13] 	0
scalar ws1_network.node[13].content_store 	misses[13] 	0
scalar ws1_network.node[13].content_store 	decision_yes[13] 	0
scalar ws1_network.node[13].content_store 	decision_no[13] 	0
scalar ws1_network.node[13].content_store 	decision_ratio[13] 	0
scalar ws1_network.node[13].content_store 	correction_factor[13] 	0.0027225701061802
scalar ws1_network.node[13].content_store 	kappa[13] 	1
scalar ws1_network.node[14].core_layer 	interests[14] 	222709
scalar ws1_network.node[14].core_layer 	repo_load[14] 	222709
scalar ws1_network.node[14].core_layer 	data[14] 	0
scalar ws1_network.node[14].content_store 	p_hit[14] 	0
scalar ws1_network.node[14].content_store 	hits[14] 	0
scalar ws1_network.node[14].content_store 	misses[14] 	222709
scalar ws1_network.node[14].content_store 	decision_yes[14] 	0
scalar ws1_network.node[14].content_store 	decision_no[14] 	222709
scalar ws1_network.node[14].content_store 	decision_ratio[14] 	0
scalar ws1_network.node[14].content_store 	correction_factor[14] 	0.0027225701061802
scalar ws1_network.node[14].content_store 	kappa[14] 	1
scalar ws1_network.node[15].core_layer 	interests[15] 	0
scalar ws1_network.node[15].core_layer 	data[15] 	0
scalar ws1_network.node[15].content_store 	p_hit[15] 	-nan
scalar ws1_network.node[15].content_store 	hits[15] 	0
scalar ws1_network.node[15].content_store 	misses[15] 	0
scalar ws1_network.node[15].content_store 	decision_yes[15] 	0
scalar ws1_network.node[15].content_store 	decision_no[15] 	0
scalar ws1_network.node[15].content_store 	decision_ratio[15] 	0
scalar ws1_network.node[15].content_store 	correction_factor[15] 	0.0027225701061802
scalar ws1_network.node[15].content_store 	kappa[15] 	1
scalar ws1_network.node[16].core_layer 	interests[16] 	40603
scalar ws1_network.node[16].core_layer 	data[16] 	37376
scalar ws1_network.node[16].content_store 	p_hit[16] 	0.079452257222373
scalar ws1_network.node[16].content_store 	hits[16] 	3226
scalar ws1_network.node[16].content_store 	misses[16] 	37377
scalar ws1_network.node[16].content_store 	decision_yes[16] 	833
scalar ws1_network.node[16].content_store 	decision_no[16] 	36543
scalar ws1_network.node[16].content_store 	decision_ratio[16] 	0.022287029109589
scalar ws1_network.node[16].content_store 	correction_factor[16] 	0.0027225701061802
scalar ws1_network.node[16].content_store 	kappa[16] 	1
scalar ws1_network.node[17].core_layer 	interests[17] 	121174
scalar ws1_network.node[17].core_layer 	data[17] 	114448
scalar ws1_network.node[17].content_store 	p_hit[17] 	0.055506956937957
scalar ws1_network.node[17].content_store 	hits[17] 	6726
scalar ws1_network.node[17].content_store 	misses[17] 	114448
scalar ws1_network.node[17].content_store 	decision_yes[17] 	91
scalar ws1_network.node[17].content_store 	decision_no[17] 	114357
scalar ws1_network.node[17].content_store 	decision_ratio[17] 	0.00079512092828184
scalar ws1_network.node[17].content_store 	correction_factor[17] 	0.0027225701061802
scalar ws1_network.node[17].content_store 	kappa[17] 	1
scalar ws1_network.node[18].core_layer 	interests[18] 	179786
scalar ws1_network.node[18].core_layer 	data[18] 	165345
scalar ws1_network.node[18].content_store 	p_hit[18] 	0.070494921740291
scalar ws1_network.node[18].content_store 	hits[18] 	12674
scalar ws1_network.node[18].content_store 	misses[18] 	167112
scalar ws1_network.node[18].content_store 	decision_yes[18] 	895
scalar ws1_network.node[18].content_store 	decision_no[18] 	164450
scalar ws1_network.node[18].content_store 	decision_ratio[18] 	0.0054129244912153
scalar ws1_network.node[18].content_store 	correction_factor[18] 	0.0027225701061802
scalar ws1_network.node[18].content_store 	kappa[18] 	1
scalar ws1_network.node[19].core_layer 	interests[19] 	0
scalar ws1_network.node[19].core_layer 	data[19] 	0
scalar ws1_network.node[19].content_store 	p_hit[19] 	-nan
scalar ws1_network.node[19].content_store 	hits[19] 	0
scalar ws1_network.node[19].content_store 	misses[19] 	0
scalar ws1_network.node[19].content_store 	decision_yes[19] 	0
scalar ws1_network.node[19].content_store 	decision_no[19] 	0
scalar ws1_network.node[19].content_store 	decision_ratio[19] 	0
scalar ws1_network.node[19].content_store 	correction_factor[19] 	0.0027225701061802
scalar ws1_network.node[19].content_store 	kappa[19] 	1
scalar ws1_network.node[20].core_layer 	interests[20] 	0
scalar ws1_network.node[20].core_layer 	data[20] 	0
scalar ws1_network.node[20].content_store 	p_hit[20] 	-nan
scalar ws1_network.node[20].content_store 	hits[20] 	0
scalar ws1_network.node[20].content_store 	misses[20] 	0
scalar ws1_network.node[20].content_store 	decision_yes[20] 	0
scalar ws1_network.node[20].content_store 	decision_no[20] 	0
scalar ws1_network.node[20].content_store 	decision_ratio[20] 	0
scalar ws1_network.node[20].content_store 	correction_factor[20] 	0.0027225701061802
scalar ws1_network.node[20].content_store 	kappa[20] 	1
scalar ws1_network.node[21].core_layer 	interests[21] 	0
scalar ws1_network.node[21].core_layer 	data[21] 	0
scalar ws1_network.node[21].content_store 	p_hit[21] 	-nan
scalar ws1_network.node[21].content_store 	hits[21] 	0
scalar ws1_network.node[21].content_store 	misses[21] 	0
scalar ws1_network.node[21].content_store 	decision_yes[21] 	0
scalar ws1_network.node[21].content_store 	decision_no[21] 	0
scalar ws1_network.node[21].content_store 	decision_ratio[21] 	0
scalar ws1_network.node[21].content_store 	correction_factor[21] 	0.0027225701061802
scalar ws1_network.node[21].content_store 	kappa[21] 	1
scalar ws1_network.client[8] 	hdistance[8] 	2.7409864712514
scalar ws1_network.client[8] 	downloads[8] 	177400
scalar ws1_network.client[8] 	avg_time[8] 	0.010131784003
scalar ws1_network.client[8] 	interests_sent[8] 	179817
scalar ws1_network.client[9] 	hdistance[9] 	3.2244288791276
scalar ws1_network.client[9] 	downloads[9] 	176889
scalar ws1_network.client[9] 	avg_time[9] 	0.012575420359
scalar ws1_network.client[9] 	interests_sent[9] 	179451
scalar ws1_network.client[18] 	hdistance[18] 	2.7721703863071
scalar ws1_network.client[18] 	downloads[18] 	178019
scalar ws1_network.client[18] 	avg_time[18] 	0.010358103032
scalar ws1_network.client[18] 	interests_sent[18] 	179786
