version 2
run General-1-20141031-11:24:45-25685
attr D costaware0.01
attr F spr
attr R lru
attr a 1
attr configname General
attr csize 1e3
attr ctlg 1e5
attr datetime 20141031-11:24:45
attr experiment General
attr inifile omnetpp.ini
attr iterationvars "$rep=15, $lambda=100, $a=1, $ctlg=1e5, $F=spr, $ttl=10, $D=costaware0.01, $R=lru, $csize=1e3, $window=60, $variance=0.05, $mytime=1800, $kappa=1, $priceratiovalue=10, $pricebits=0"
attr iterationvars2 "$rep=15, $lambda=100, $a=1, $ctlg=1e5, $F=spr, $ttl=10, $D=costaware0.01, $R=lru, $csize=1e3, $window=60, $variance=0.05, $mytime=1800, $kappa=1, $priceratiovalue=10, $pricebits=0, $repetition=0"
attr kappa 1
attr lambda 100
attr measurement "$rep=15, $lambda=100, $a=1, $ctlg=1e5, $F=spr, $ttl=10, $D=costaware0.01, $R=lru, $csize=1e3, $window=60, $variance=0.05, $mytime=1800, $kappa=1, $priceratiovalue=10, $pricebits=0"
attr mytime 1800
attr network networks.ws${rep}_network
attr pricebits 0
attr priceratiovalue 10
attr processid 25685
attr rep 15
attr repetition 0
attr replication #0
attr resultdir results
attr runnumber 1
attr seedset 15
attr ttl 10
attr variance 0.05
attr window 60

scalar . 	a 	1
scalar . 	csize 	1e3
scalar . 	ctlg 	1e5
scalar . 	kappa 	1
scalar . 	lambda 	100
scalar . 	mytime 	1800
scalar . 	pricebits 	0
scalar . 	priceratiovalue 	10
scalar . 	rep 	15
scalar . 	ttl 	10
scalar . 	variance 	0.05
scalar . 	window 	60
scalar ws15_network.content_distribution 	repo-0 	5
scalar ws15_network.content_distribution 	repo-1 	8
scalar ws15_network.content_distribution 	repo-2 	20
scalar ws15_network.content_distribution 	client-0 	19
scalar ws15_network.content_distribution 	client-1 	18
scalar ws15_network.content_distribution 	client-2 	11
scalar ws15_network.content_distribution 	repo-0_card 	33352
scalar ws15_network.content_distribution 	repo-0_price 	1
scalar ws15_network.content_distribution 	repo-1_card 	33287
scalar ws15_network.content_distribution 	repo-1_price 	0
scalar ws15_network.content_distribution 	repo-2_card 	33361
scalar ws15_network.content_distribution 	repo-2_price 	10
scalar ws15_network.statistics 	repo_popularity[0] 	0.39661812235512
scalar ws15_network.statistics 	repo_popularity[1] 	0.26899614044563
scalar ws15_network.statistics 	repo_popularity[2] 	0.33438573719926
scalar ws15_network.statistics 	stabilization_time 	36060
scalar ws15_network.statistics 	p_hit 	0.14958533264068
scalar ws15_network.statistics 	interests 	59149.272727273
scalar ws15_network.statistics 	data 	34628.818181818
scalar ws15_network.statistics 	hdistance 	2.0594273258134
scalar ws15_network.statistics 	avg_time 	0.007352854963
scalar ws15_network.statistics 	downloads 	535642
scalar ws15_network.statistics 	total_cost 	1058692
scalar ws15_network.statistics 	total_replicas 	100000
scalar ws15_network.statistics 	inner_hit 	0.36550905268818
scalar ws15_network.statistics 	interests_sent 	539446
scalar ws15_network.node[0].core_layer 	interests[0] 	0
scalar ws15_network.node[0].core_layer 	data[0] 	0
scalar ws15_network.node[0].core_layer 	repo_int[0] 	339860
scalar ws15_network.node[0].content_store 	p_hit[0] 	-nan
scalar ws15_network.node[0].content_store 	hits[0] 	0
scalar ws15_network.node[0].content_store 	misses[0] 	0
scalar ws15_network.node[0].content_store 	decision_yes[0] 	0
scalar ws15_network.node[0].content_store 	decision_no[0] 	0
scalar ws15_network.node[0].content_store 	decision_ratio[0] 	0
scalar ws15_network.node[0].content_store 	correction_factor[0] 	0.0027225701061802
scalar ws15_network.node[0].content_store 	kappa[0] 	1
scalar ws15_network.node[1].core_layer 	interests[1] 	0
scalar ws15_network.node[1].core_layer 	data[1] 	0
scalar ws15_network.node[1].content_store 	p_hit[1] 	-nan
scalar ws15_network.node[1].content_store 	hits[1] 	0
scalar ws15_network.node[1].content_store 	misses[1] 	0
scalar ws15_network.node[1].content_store 	decision_yes[1] 	0
scalar ws15_network.node[1].content_store 	decision_no[1] 	0
scalar ws15_network.node[1].content_store 	decision_ratio[1] 	0
scalar ws15_network.node[1].content_store 	correction_factor[1] 	0.0027225701061802
scalar ws15_network.node[1].content_store 	kappa[1] 	1
scalar ws15_network.node[2].core_layer 	interests[2] 	0
scalar ws15_network.node[2].core_layer 	data[2] 	0
scalar ws15_network.node[2].content_store 	p_hit[2] 	-nan
scalar ws15_network.node[2].content_store 	hits[2] 	0
scalar ws15_network.node[2].content_store 	misses[2] 	0
scalar ws15_network.node[2].content_store 	decision_yes[2] 	0
scalar ws15_network.node[2].content_store 	decision_no[2] 	0
scalar ws15_network.node[2].content_store 	decision_ratio[2] 	0
scalar ws15_network.node[2].content_store 	correction_factor[2] 	0.0027225701061802
scalar ws15_network.node[2].content_store 	kappa[2] 	1
scalar ws15_network.node[3].core_layer 	interests[3] 	183657
scalar ws15_network.node[3].core_layer 	data[3] 	161169
scalar ws15_network.node[3].content_store 	p_hit[3] 	0.11628742710596
scalar ws15_network.node[3].content_store 	hits[3] 	21357
scalar ws15_network.node[3].content_store 	misses[3] 	162300
scalar ws15_network.node[3].content_store 	decision_yes[3] 	168
scalar ws15_network.node[3].content_store 	decision_no[3] 	161001
scalar ws15_network.node[3].content_store 	decision_ratio[3] 	0.001042384081306
scalar ws15_network.node[3].content_store 	correction_factor[3] 	0.0027225701061802
scalar ws15_network.node[3].content_store 	kappa[3] 	1
scalar ws15_network.node[4].core_layer 	interests[4] 	0
scalar ws15_network.node[4].core_layer 	data[4] 	0
scalar ws15_network.node[4].content_store 	p_hit[4] 	-nan
scalar ws15_network.node[4].content_store 	hits[4] 	0
scalar ws15_network.node[4].content_store 	misses[4] 	0
scalar ws15_network.node[4].content_store 	decision_yes[4] 	0
scalar ws15_network.node[4].content_store 	decision_no[4] 	0
scalar ws15_network.node[4].content_store 	decision_ratio[4] 	0
scalar ws15_network.node[4].content_store 	correction_factor[4] 	0.0027225701061802
scalar ws15_network.node[4].content_store 	kappa[4] 	1
scalar ws15_network.node[5].core_layer 	interests[5] 	177577
scalar ws15_network.node[5].core_layer 	repo_load[5] 	98592
scalar ws15_network.node[5].core_layer 	data[5] 	0
scalar ws15_network.node[5].content_store 	p_hit[5] 	0.44479296305265
scalar ws15_network.node[5].content_store 	hits[5] 	78985
scalar ws15_network.node[5].content_store 	misses[5] 	98592
scalar ws15_network.node[5].content_store 	decision_yes[5] 	238
scalar ws15_network.node[5].content_store 	decision_no[5] 	98354
scalar ws15_network.node[5].content_store 	decision_ratio[5] 	0.0024139889646219
scalar ws15_network.node[5].content_store 	correction_factor[5] 	0.0027225701061802
scalar ws15_network.node[5].content_store 	kappa[5] 	1
scalar ws15_network.node[6].core_layer 	interests[6] 	0
scalar ws15_network.node[6].core_layer 	data[6] 	0
scalar ws15_network.node[6].content_store 	p_hit[6] 	-nan
scalar ws15_network.node[6].content_store 	hits[6] 	0
scalar ws15_network.node[6].content_store 	misses[6] 	0
scalar ws15_network.node[6].content_store 	decision_yes[6] 	0
scalar ws15_network.node[6].content_store 	decision_no[6] 	0
scalar ws15_network.node[6].content_store 	decision_ratio[6] 	0
scalar ws15_network.node[6].content_store 	correction_factor[6] 	0.0027225701061802
scalar ws15_network.node[6].content_store 	kappa[6] 	1
scalar ws15_network.node[7].core_layer 	interests[7] 	0
scalar ws15_network.node[7].core_layer 	data[7] 	0
scalar ws15_network.node[7].content_store 	p_hit[7] 	-nan
scalar ws15_network.node[7].content_store 	hits[7] 	0
scalar ws15_network.node[7].content_store 	misses[7] 	0
scalar ws15_network.node[7].content_store 	decision_yes[7] 	0
scalar ws15_network.node[7].content_store 	decision_no[7] 	0
scalar ws15_network.node[7].content_store 	decision_ratio[7] 	0
scalar ws15_network.node[7].content_store 	correction_factor[7] 	0.0027225701061802
scalar ws15_network.node[7].content_store 	kappa[7] 	1
scalar ws15_network.node[8].core_layer 	interests[8] 	198739
scalar ws15_network.node[8].core_layer 	repo_load[8] 	145258
scalar ws15_network.node[8].core_layer 	data[8] 	37810
scalar ws15_network.node[8].content_store 	p_hit[8] 	0.078847131161976
scalar ws15_network.node[8].content_store 	hits[8] 	15670
scalar ws15_network.node[8].content_store 	misses[8] 	183069
scalar ws15_network.node[8].content_store 	decision_yes[8] 	810
scalar ws15_network.node[8].content_store 	decision_no[8] 	182258
scalar ws15_network.node[8].content_store 	decision_ratio[8] 	0.0044245853999607
scalar ws15_network.node[8].content_store 	correction_factor[8] 	0.0027225701061802
scalar ws15_network.node[8].content_store 	kappa[8] 	1
scalar ws15_network.node[9].core_layer 	interests[9] 	37810
scalar ws15_network.node[9].core_layer 	data[9] 	34558
scalar ws15_network.node[9].content_store 	p_hit[9] 	0.086008992330071
scalar ws15_network.node[9].content_store 	hits[9] 	3252
scalar ws15_network.node[9].content_store 	misses[9] 	34558
scalar ws15_network.node[9].content_store 	decision_yes[9] 	803
scalar ws15_network.node[9].content_store 	decision_no[9] 	33755
scalar ws15_network.node[9].content_store 	decision_ratio[9] 	0.023236298396898
scalar ws15_network.node[9].content_store 	correction_factor[9] 	0.0027225701061802
scalar ws15_network.node[9].content_store 	kappa[9] 	1
scalar ws15_network.node[10].core_layer 	interests[10] 	0
scalar ws15_network.node[10].core_layer 	data[10] 	0
scalar ws15_network.node[10].content_store 	p_hit[10] 	-nan
scalar ws15_network.node[10].content_store 	hits[10] 	0
scalar ws15_network.node[10].content_store 	misses[10] 	0
scalar ws15_network.node[10].content_store 	decision_yes[10] 	0
scalar ws15_network.node[10].content_store 	decision_no[10] 	0
scalar ws15_network.node[10].content_store 	decision_ratio[10] 	0
scalar ws15_network.node[10].content_store 	correction_factor[10] 	0.0027225701061802
scalar ws15_network.node[10].content_store 	kappa[10] 	1
scalar ws15_network.node[11].core_layer 	interests[11] 	179915
scalar ws15_network.node[11].core_layer 	data[11] 	155095
scalar ws15_network.node[11].content_store 	p_hit[11] 	0.13341300058361
scalar ws15_network.node[11].content_store 	hits[11] 	24003
scalar ws15_network.node[11].content_store 	misses[11] 	155912
scalar ws15_network.node[11].content_store 	decision_yes[11] 	1058
scalar ws15_network.node[11].content_store 	decision_no[11] 	154037
scalar ws15_network.node[11].content_store 	decision_ratio[11] 	0.0068216254553661
scalar ws15_network.node[11].content_store 	correction_factor[11] 	0.0027225701061802
scalar ws15_network.node[11].content_store 	kappa[11] 	1
scalar ws15_network.node[12].core_layer 	interests[12] 	48565
scalar ws15_network.node[12].core_layer 	data[12] 	48564
scalar ws15_network.node[12].content_store 	p_hit[12] 	0
scalar ws15_network.node[12].content_store 	hits[12] 	0
scalar ws15_network.node[12].content_store 	misses[12] 	48565
scalar ws15_network.node[12].content_store 	decision_yes[12] 	0
scalar ws15_network.node[12].content_store 	decision_no[12] 	48564
scalar ws15_network.node[12].content_store 	decision_ratio[12] 	0
scalar ws15_network.node[12].content_store 	correction_factor[12] 	0.0027225701061802
scalar ws15_network.node[12].content_store 	kappa[12] 	1
scalar ws15_network.node[13].core_layer 	interests[13] 	0
scalar ws15_network.node[13].core_layer 	data[13] 	0
scalar ws15_network.node[13].content_store 	p_hit[13] 	-nan
scalar ws15_network.node[13].content_store 	hits[13] 	0
scalar ws15_network.node[13].content_store 	misses[13] 	0
scalar ws15_network.node[13].content_store 	decision_yes[13] 	0
scalar ws15_network.node[13].content_store 	decision_no[13] 	0
scalar ws15_network.node[13].content_store 	decision_ratio[13] 	0
scalar ws15_network.node[13].content_store 	correction_factor[13] 	0.0027225701061802
scalar ws15_network.node[13].content_store 	kappa[13] 	1
scalar ws15_network.node[14].core_layer 	interests[14] 	0
scalar ws15_network.node[14].core_layer 	data[14] 	0
scalar ws15_network.node[14].content_store 	p_hit[14] 	-nan
scalar ws15_network.node[14].content_store 	hits[14] 	0
scalar ws15_network.node[14].content_store 	misses[14] 	0
scalar ws15_network.node[14].content_store 	decision_yes[14] 	0
scalar ws15_network.node[14].content_store 	decision_no[14] 	0
scalar ws15_network.node[14].content_store 	decision_ratio[14] 	0
scalar ws15_network.node[14].content_store 	correction_factor[14] 	0.0027225701061802
scalar ws15_network.node[14].content_store 	kappa[14] 	1
scalar ws15_network.node[15].core_layer 	interests[15] 	0
scalar ws15_network.node[15].core_layer 	data[15] 	0
scalar ws15_network.node[15].content_store 	p_hit[15] 	-nan
scalar ws15_network.node[15].content_store 	hits[15] 	0
scalar ws15_network.node[15].content_store 	misses[15] 	0
scalar ws15_network.node[15].content_store 	decision_yes[15] 	0
scalar ws15_network.node[15].content_store 	decision_no[15] 	0
scalar ws15_network.node[15].content_store 	decision_ratio[15] 	0
scalar ws15_network.node[15].content_store 	correction_factor[15] 	0.0027225701061802
scalar ws15_network.node[15].content_store 	kappa[15] 	1
scalar ws15_network.node[16].core_layer 	interests[16] 	0
scalar ws15_network.node[16].core_layer 	data[16] 	0
scalar ws15_network.node[16].content_store 	p_hit[16] 	-nan
scalar ws15_network.node[16].content_store 	hits[16] 	0
scalar ws15_network.node[16].content_store 	misses[16] 	0
scalar ws15_network.node[16].content_store 	decision_yes[16] 	0
scalar ws15_network.node[16].content_store 	decision_no[16] 	0
scalar ws15_network.node[16].content_store 	decision_ratio[16] 	0
scalar ws15_network.node[16].content_store 	correction_factor[16] 	0.0027225701061802
scalar ws15_network.node[16].content_store 	kappa[16] 	1
scalar ws15_network.node[17].core_layer 	interests[17] 	0
scalar ws15_network.node[17].core_layer 	data[17] 	0
scalar ws15_network.node[17].content_store 	p_hit[17] 	-nan
scalar ws15_network.node[17].content_store 	hits[17] 	0
scalar ws15_network.node[17].content_store 	misses[17] 	0
scalar ws15_network.node[17].content_store 	decision_yes[17] 	0
scalar ws15_network.node[17].content_store 	decision_no[17] 	0
scalar ws15_network.node[17].content_store 	decision_ratio[17] 	0
scalar ws15_network.node[17].content_store 	correction_factor[17] 	0.0027225701061802
scalar ws15_network.node[17].content_store 	kappa[17] 	1
scalar ws15_network.node[18].core_layer 	interests[18] 	180072
scalar ws15_network.node[18].core_layer 	data[18] 	155565
scalar ws15_network.node[18].content_store 	p_hit[18] 	0.12800990714825
scalar ws15_network.node[18].content_store 	hits[18] 	23051
scalar ws15_network.node[18].content_store 	misses[18] 	157021
scalar ws15_network.node[18].content_store 	decision_yes[18] 	969
scalar ws15_network.node[18].content_store 	decision_no[18] 	154596
scalar ws15_network.node[18].content_store 	decision_ratio[18] 	0.0062289075306142
scalar ws15_network.node[18].content_store 	correction_factor[18] 	0.0027225701061802
scalar ws15_network.node[18].content_store 	kappa[18] 	1
scalar ws15_network.node[19].core_layer 	interests[19] 	179459
scalar ws15_network.node[19].core_layer 	data[19] 	169073
scalar ws15_network.node[19].content_store 	p_hit[19] 	0.049342746811249
scalar ws15_network.node[19].content_store 	hits[19] 	8855
scalar ws15_network.node[19].content_store 	misses[19] 	170604
scalar ws15_network.node[19].content_store 	decision_yes[19] 	858
scalar ws15_network.node[19].content_store 	decision_no[19] 	168215
scalar ws15_network.node[19].content_store 	decision_ratio[19] 	0.0050747310333406
scalar ws15_network.node[19].content_store 	correction_factor[19] 	0.0027225701061802
scalar ws15_network.node[19].content_store 	kappa[19] 	1
scalar ws15_network.node[20].core_layer 	interests[20] 	115490
scalar ws15_network.node[20].core_layer 	repo_load[20] 	96010
scalar ws15_network.node[20].core_layer 	data[20] 	0
scalar ws15_network.node[20].content_store 	p_hit[20] 	0.16867261234739
scalar ws15_network.node[20].content_store 	hits[20] 	19480
scalar ws15_network.node[20].content_store 	misses[20] 	96010
scalar ws15_network.node[20].content_store 	decision_yes[20] 	2685
scalar ws15_network.node[20].content_store 	decision_no[20] 	93325
scalar ws15_network.node[20].content_store 	decision_ratio[20] 	0.02796583689199
scalar ws15_network.node[20].content_store 	correction_factor[20] 	0.0027225701061802
scalar ws15_network.node[20].content_store 	kappa[20] 	1
scalar ws15_network.node[21].core_layer 	interests[21] 	0
scalar ws15_network.node[21].core_layer 	data[21] 	0
scalar ws15_network.node[21].content_store 	p_hit[21] 	-nan
scalar ws15_network.node[21].content_store 	hits[21] 	0
scalar ws15_network.node[21].content_store 	misses[21] 	0
scalar ws15_network.node[21].content_store 	decision_yes[21] 	0
scalar ws15_network.node[21].content_store 	decision_no[21] 	0
scalar ws15_network.node[21].content_store 	decision_ratio[21] 	0
scalar ws15_network.node[21].content_store 	correction_factor[21] 	0.0027225701061802
scalar ws15_network.node[21].content_store 	kappa[21] 	1
scalar ws15_network.client[11] 	hdistance[11] 	1.7922199019531
scalar ws15_network.client[11] 	downloads[11] 	179098
scalar ws15_network.client[11] 	avg_time[11] 	0.005876374819
scalar ws15_network.client[11] 	interests_sent[11] 	179915
scalar ws15_network.client[18] 	hdistance[18] 	2.0955625475881
scalar ws15_network.client[18] 	downloads[18] 	178616
scalar ws15_network.client[18] 	avg_time[18] 	0.007547747544
scalar ws15_network.client[18] 	interests_sent[18] 	180072
scalar ws15_network.client[19] 	hdistance[19] 	2.2904995278989
scalar ws15_network.client[19] 	downloads[19] 	177928
scalar ws15_network.client[19] 	avg_time[19] 	0.008634442528
scalar ws15_network.client[19] 	interests_sent[19] 	179459
