version 2
run General-1-20150722-12:20:15-25583
attr C 116667
attr D lce
attr F spr
attr R lru
attr a 1
attr brates 1
attr configname General
attr ctlg 1e6
attr datetime 20150722-12:20:15
attr experiment General
attr inifile omnetpp.ini
attr iterationvars "$net=barabasi_100nodes, $rep=3, $lambda=100, $a=1, $ctlg=1e6, $brates=1, $F=spr, $ttl=1000, $D=lce, $R=lru, $C=116667, $window=60, $variance=0.05, $mytime=1800"
attr iterationvars2 "$net=barabasi_100nodes, $rep=3, $lambda=100, $a=1, $ctlg=1e6, $brates=1, $F=spr, $ttl=1000, $D=lce, $R=lru, $C=116667, $window=60, $variance=0.05, $mytime=1800, $repetition=0"
attr lambda 100
attr measurement "$net=barabasi_100nodes, $rep=3, $lambda=100, $a=1, $ctlg=1e6, $brates=1, $F=spr, $ttl=1000, $D=lce, $R=lru, $C=116667, $window=60, $variance=0.05, $mytime=1800"
attr mytime 1800
attr net barabasi_100nodes
attr network networks.${net=barabasi_100nodes}_network
attr processid 25583
attr rep 3
attr repetition 0
attr replication #0
attr resultdir results
attr runnumber 1
attr seedset 3
attr ttl 1000
attr variance 0.05
attr window 60

scalar . 	C 	116667
scalar . 	a 	1
scalar . 	brates 	1
scalar . 	ctlg 	1e6
scalar . 	lambda 	100
scalar . 	mytime 	1800
scalar . 	rep 	3
scalar . 	ttl 	1000
scalar . 	variance 	0.05
scalar . 	window 	60
scalar barabasi_100nodes_network.content_distribution 	repo-0 	9
scalar barabasi_100nodes_network.content_distribution 	repo-1 	15
scalar barabasi_100nodes_network.content_distribution 	repo-2 	64
scalar barabasi_100nodes_network.content_distribution 	repo-3 	28
scalar barabasi_100nodes_network.content_distribution 	repo-4 	89
scalar barabasi_100nodes_network.content_distribution 	repo-5 	93
scalar barabasi_100nodes_network.content_distribution 	repo-6 	29
scalar barabasi_100nodes_network.content_distribution 	repo-7 	8
scalar barabasi_100nodes_network.content_distribution 	repo-8 	73
scalar barabasi_100nodes_network.content_distribution 	repo-9 	0
scalar barabasi_100nodes_network.content_distribution 	repo-10 	40
scalar barabasi_100nodes_network.content_distribution 	repo-11 	36
scalar barabasi_100nodes_network.content_distribution 	repo-12 	16
scalar barabasi_100nodes_network.content_distribution 	repo-13 	11
scalar barabasi_100nodes_network.content_distribution 	repo-14 	54
scalar barabasi_100nodes_network.content_distribution 	repo-15 	88
scalar barabasi_100nodes_network.content_distribution 	repo-16 	62
scalar barabasi_100nodes_network.content_distribution 	repo-17 	33
scalar barabasi_100nodes_network.content_distribution 	repo-18 	72
scalar barabasi_100nodes_network.content_distribution 	repo-19 	78
scalar barabasi_100nodes_network.content_distribution 	repo-20 	49
scalar barabasi_100nodes_network.content_distribution 	repo-21 	51
scalar barabasi_100nodes_network.content_distribution 	repo-22 	77
scalar barabasi_100nodes_network.content_distribution 	repo-23 	69
scalar barabasi_100nodes_network.content_distribution 	repo-24 	13
scalar barabasi_100nodes_network.content_distribution 	repo-25 	25
scalar barabasi_100nodes_network.content_distribution 	repo-26 	92
scalar barabasi_100nodes_network.content_distribution 	repo-27 	86
scalar barabasi_100nodes_network.content_distribution 	repo-28 	30
scalar barabasi_100nodes_network.content_distribution 	repo-29 	12
scalar barabasi_100nodes_network.content_distribution 	repo-30 	65
scalar barabasi_100nodes_network.content_distribution 	repo-31 	31
scalar barabasi_100nodes_network.content_distribution 	repo-32 	57
scalar barabasi_100nodes_network.content_distribution 	repo-33 	27
scalar barabasi_100nodes_network.content_distribution 	repo-34 	18
scalar barabasi_100nodes_network.content_distribution 	repo-35 	22
scalar barabasi_100nodes_network.content_distribution 	repo-36 	23
scalar barabasi_100nodes_network.content_distribution 	repo-37 	94
scalar barabasi_100nodes_network.content_distribution 	repo-38 	74
scalar barabasi_100nodes_network.content_distribution 	repo-39 	80
scalar barabasi_100nodes_network.content_distribution 	repo-40 	71
scalar barabasi_100nodes_network.content_distribution 	repo-41 	17
scalar barabasi_100nodes_network.content_distribution 	repo-42 	46
scalar barabasi_100nodes_network.content_distribution 	repo-43 	7
scalar barabasi_100nodes_network.content_distribution 	repo-44 	75
scalar barabasi_100nodes_network.content_distribution 	repo-45 	84
scalar barabasi_100nodes_network.content_distribution 	repo-46 	96
scalar barabasi_100nodes_network.content_distribution 	repo-47 	44
scalar barabasi_100nodes_network.content_distribution 	repo-48 	5
scalar barabasi_100nodes_network.content_distribution 	repo-49 	4
scalar barabasi_100nodes_network.content_distribution 	repo-50 	50
scalar barabasi_100nodes_network.content_distribution 	repo-51 	34
scalar barabasi_100nodes_network.content_distribution 	repo-52 	6
scalar barabasi_100nodes_network.content_distribution 	repo-53 	85
scalar barabasi_100nodes_network.content_distribution 	repo-54 	79
scalar barabasi_100nodes_network.content_distribution 	repo-55 	42
scalar barabasi_100nodes_network.content_distribution 	repo-56 	97
scalar barabasi_100nodes_network.content_distribution 	repo-57 	45
scalar barabasi_100nodes_network.content_distribution 	repo-58 	37
scalar barabasi_100nodes_network.content_distribution 	repo-59 	3
scalar barabasi_100nodes_network.content_distribution 	repo-60 	82
scalar barabasi_100nodes_network.content_distribution 	repo-61 	14
scalar barabasi_100nodes_network.content_distribution 	repo-62 	53
scalar barabasi_100nodes_network.content_distribution 	repo-63 	48
scalar barabasi_100nodes_network.content_distribution 	repo-64 	32
scalar barabasi_100nodes_network.content_distribution 	repo-65 	81
scalar barabasi_100nodes_network.content_distribution 	repo-66 	41
scalar barabasi_100nodes_network.content_distribution 	repo-67 	90
scalar barabasi_100nodes_network.content_distribution 	repo-68 	38
scalar barabasi_100nodes_network.content_distribution 	repo-69 	66
scalar barabasi_100nodes_network.content_distribution 	repo-70 	67
scalar barabasi_100nodes_network.content_distribution 	repo-71 	95
scalar barabasi_100nodes_network.content_distribution 	repo-72 	99
scalar barabasi_100nodes_network.content_distribution 	repo-73 	21
scalar barabasi_100nodes_network.content_distribution 	repo-74 	43
scalar barabasi_100nodes_network.content_distribution 	repo-75 	87
scalar barabasi_100nodes_network.content_distribution 	repo-76 	39
scalar barabasi_100nodes_network.content_distribution 	repo-77 	91
scalar barabasi_100nodes_network.content_distribution 	repo-78 	52
scalar barabasi_100nodes_network.content_distribution 	repo-79 	76
scalar barabasi_100nodes_network.content_distribution 	repo-80 	68
scalar barabasi_100nodes_network.content_distribution 	repo-81 	70
scalar barabasi_100nodes_network.content_distribution 	repo-82 	2
scalar barabasi_100nodes_network.content_distribution 	repo-83 	58
scalar barabasi_100nodes_network.content_distribution 	repo-84 	1
scalar barabasi_100nodes_network.content_distribution 	repo-85 	63
scalar barabasi_100nodes_network.content_distribution 	repo-86 	83
scalar barabasi_100nodes_network.content_distribution 	repo-87 	55
scalar barabasi_100nodes_network.content_distribution 	repo-88 	20
scalar barabasi_100nodes_network.content_distribution 	repo-89 	60
scalar barabasi_100nodes_network.content_distribution 	repo-90 	61
scalar barabasi_100nodes_network.content_distribution 	repo-91 	19
scalar barabasi_100nodes_network.content_distribution 	repo-92 	35
scalar barabasi_100nodes_network.content_distribution 	repo-93 	10
scalar barabasi_100nodes_network.content_distribution 	repo-94 	59
scalar barabasi_100nodes_network.content_distribution 	repo-95 	98
scalar barabasi_100nodes_network.content_distribution 	repo-96 	56
scalar barabasi_100nodes_network.content_distribution 	repo-97 	26
scalar barabasi_100nodes_network.content_distribution 	repo-98 	47
scalar barabasi_100nodes_network.content_distribution 	repo-99 	24
scalar barabasi_100nodes_network.content_distribution 	client-0 	72
scalar barabasi_100nodes_network.content_distribution 	client-1 	54
scalar barabasi_100nodes_network.content_distribution 	client-2 	80
scalar barabasi_100nodes_network.content_distribution 	client-3 	21
scalar barabasi_100nodes_network.content_distribution 	client-4 	19
scalar barabasi_100nodes_network.content_distribution 	client-5 	95
scalar barabasi_100nodes_network.content_distribution 	client-6 	3
scalar barabasi_100nodes_network.content_distribution 	client-7 	98
scalar barabasi_100nodes_network.content_distribution 	client-8 	25
scalar barabasi_100nodes_network.content_distribution 	client-9 	41
scalar barabasi_100nodes_network.content_distribution 	client-10 	14
scalar barabasi_100nodes_network.content_distribution 	client-11 	73
scalar barabasi_100nodes_network.content_distribution 	client-12 	71
scalar barabasi_100nodes_network.content_distribution 	client-13 	38
scalar barabasi_100nodes_network.content_distribution 	client-14 	49
scalar barabasi_100nodes_network.content_distribution 	client-15 	22
scalar barabasi_100nodes_network.content_distribution 	client-16 	97
scalar barabasi_100nodes_network.content_distribution 	client-17 	47
scalar barabasi_100nodes_network.content_distribution 	client-18 	31
scalar barabasi_100nodes_network.content_distribution 	client-19 	46
scalar barabasi_100nodes_network.content_distribution 	client-20 	5
scalar barabasi_100nodes_network.content_distribution 	client-21 	76
scalar barabasi_100nodes_network.content_distribution 	client-22 	16
scalar barabasi_100nodes_network.content_distribution 	client-23 	92
scalar barabasi_100nodes_network.content_distribution 	client-24 	20
scalar barabasi_100nodes_network.content_distribution 	client-25 	82
scalar barabasi_100nodes_network.content_distribution 	client-26 	9
scalar barabasi_100nodes_network.content_distribution 	client-27 	56
scalar barabasi_100nodes_network.content_distribution 	client-28 	37
scalar barabasi_100nodes_network.content_distribution 	client-29 	6
scalar barabasi_100nodes_network.content_distribution 	client-30 	30
scalar barabasi_100nodes_network.content_distribution 	client-31 	67
scalar barabasi_100nodes_network.content_distribution 	client-32 	70
scalar barabasi_100nodes_network.content_distribution 	client-33 	53
scalar barabasi_100nodes_network.content_distribution 	client-34 	13
scalar barabasi_100nodes_network.content_distribution 	client-35 	10
scalar barabasi_100nodes_network.content_distribution 	client-36 	60
scalar barabasi_100nodes_network.content_distribution 	client-37 	33
scalar barabasi_100nodes_network.content_distribution 	client-38 	42
scalar barabasi_100nodes_network.content_distribution 	client-39 	0
scalar barabasi_100nodes_network.content_distribution 	client-40 	88
scalar barabasi_100nodes_network.content_distribution 	client-41 	36
scalar barabasi_100nodes_network.content_distribution 	client-42 	87
scalar barabasi_100nodes_network.content_distribution 	client-43 	66
scalar barabasi_100nodes_network.content_distribution 	client-44 	55
scalar barabasi_100nodes_network.content_distribution 	client-45 	17
scalar barabasi_100nodes_network.content_distribution 	client-46 	1
scalar barabasi_100nodes_network.content_distribution 	client-47 	51
scalar barabasi_100nodes_network.content_distribution 	client-48 	77
scalar barabasi_100nodes_network.content_distribution 	client-49 	7
scalar barabasi_100nodes_network.content_distribution 	client-50 	26
scalar barabasi_100nodes_network.content_distribution 	client-51 	58
scalar barabasi_100nodes_network.content_distribution 	client-52 	90
scalar barabasi_100nodes_network.content_distribution 	client-53 	40
scalar barabasi_100nodes_network.content_distribution 	client-54 	2
scalar barabasi_100nodes_network.content_distribution 	client-55 	23
scalar barabasi_100nodes_network.content_distribution 	client-56 	65
scalar barabasi_100nodes_network.content_distribution 	client-57 	4
scalar barabasi_100nodes_network.content_distribution 	client-58 	78
scalar barabasi_100nodes_network.content_distribution 	client-59 	99
scalar barabasi_100nodes_network.content_distribution 	client-60 	59
scalar barabasi_100nodes_network.content_distribution 	client-61 	86
scalar barabasi_100nodes_network.content_distribution 	client-62 	44
scalar barabasi_100nodes_network.content_distribution 	client-63 	35
scalar barabasi_100nodes_network.content_distribution 	client-64 	57
scalar barabasi_100nodes_network.content_distribution 	client-65 	52
scalar barabasi_100nodes_network.content_distribution 	client-66 	29
scalar barabasi_100nodes_network.content_distribution 	client-67 	32
scalar barabasi_100nodes_network.content_distribution 	client-68 	84
scalar barabasi_100nodes_network.content_distribution 	client-69 	75
scalar barabasi_100nodes_network.content_distribution 	client-70 	12
scalar barabasi_100nodes_network.content_distribution 	client-71 	96
scalar barabasi_100nodes_network.content_distribution 	client-72 	39
scalar barabasi_100nodes_network.content_distribution 	client-73 	69
scalar barabasi_100nodes_network.content_distribution 	client-74 	24
scalar barabasi_100nodes_network.content_distribution 	client-75 	83
scalar barabasi_100nodes_network.content_distribution 	client-76 	15
scalar barabasi_100nodes_network.content_distribution 	client-77 	63
scalar barabasi_100nodes_network.content_distribution 	client-78 	79
scalar barabasi_100nodes_network.content_distribution 	client-79 	89
scalar barabasi_100nodes_network.content_distribution 	client-80 	94
scalar barabasi_100nodes_network.content_distribution 	client-81 	18
scalar barabasi_100nodes_network.content_distribution 	client-82 	74
scalar barabasi_100nodes_network.content_distribution 	client-83 	62
scalar barabasi_100nodes_network.content_distribution 	client-84 	93
scalar barabasi_100nodes_network.content_distribution 	client-85 	48
scalar barabasi_100nodes_network.content_distribution 	client-86 	64
scalar barabasi_100nodes_network.content_distribution 	client-87 	8
scalar barabasi_100nodes_network.content_distribution 	client-88 	85
scalar barabasi_100nodes_network.content_distribution 	client-89 	81
scalar barabasi_100nodes_network.content_distribution 	client-90 	28
scalar barabasi_100nodes_network.content_distribution 	client-91 	34
scalar barabasi_100nodes_network.content_distribution 	client-92 	45
scalar barabasi_100nodes_network.content_distribution 	client-93 	68
scalar barabasi_100nodes_network.content_distribution 	client-94 	43
scalar barabasi_100nodes_network.content_distribution 	client-95 	91
scalar barabasi_100nodes_network.content_distribution 	client-96 	50
scalar barabasi_100nodes_network.content_distribution 	client-97 	27
scalar barabasi_100nodes_network.content_distribution 	client-98 	61
scalar barabasi_100nodes_network.content_distribution 	client-99 	11
scalar barabasi_100nodes_network.content_distribution 	repo-0_card 	250071
scalar barabasi_100nodes_network.content_distribution 	repo-0_price 	0
scalar barabasi_100nodes_network.content_distribution 	repo-1_card 	250237
scalar barabasi_100nodes_network.content_distribution 	repo-1_price 	0
scalar barabasi_100nodes_network.content_distribution 	repo-2_card 	249820
scalar barabasi_100nodes_network.content_distribution 	repo-2_price 	0
scalar barabasi_100nodes_network.content_distribution 	repo-3_card 	249872
scalar barabasi_100nodes_network.content_distribution 	repo-3_price 	0
scalar barabasi_100nodes_network.content_distribution 	repo-4_card 	0
scalar barabasi_100nodes_network.content_distribution 	repo-4_price 	0
scalar barabasi_100nodes_network.content_distribution 	repo-5_card 	0
scalar barabasi_100nodes_network.content_distribution 	repo-5_price 	0
scalar barabasi_100nodes_network.content_distribution 	repo-6_card 	0
scalar barabasi_100nodes_network.content_distribution 	repo-6_price 	0
scalar barabasi_100nodes_network.content_distribution 	repo-7_card 	0
scalar barabasi_100nodes_network.content_distribution 	repo-7_price 	0
scalar barabasi_100nodes_network.content_distribution 	repo-8_card 	0
scalar barabasi_100nodes_network.content_distribution 	repo-8_price 	0
scalar barabasi_100nodes_network.content_distribution 	repo-9_card 	0
scalar barabasi_100nodes_network.content_distribution 	repo-9_price 	0
scalar barabasi_100nodes_network.content_distribution 	repo-10_card 	0
scalar barabasi_100nodes_network.content_distribution 	repo-10_price 	0
scalar barabasi_100nodes_network.content_distribution 	repo-11_card 	0
scalar barabasi_100nodes_network.content_distribution 	repo-11_price 	0
scalar barabasi_100nodes_network.content_distribution 	repo-12_card 	0
scalar barabasi_100nodes_network.content_distribution 	repo-12_price 	0
scalar barabasi_100nodes_network.content_distribution 	repo-13_card 	0
scalar barabasi_100nodes_network.content_distribution 	repo-13_price 	0
scalar barabasi_100nodes_network.content_distribution 	repo-14_card 	0
scalar barabasi_100nodes_network.content_distribution 	repo-14_price 	0
scalar barabasi_100nodes_network.content_distribution 	repo-15_card 	0
scalar barabasi_100nodes_network.content_distribution 	repo-15_price 	0
scalar barabasi_100nodes_network.content_distribution 	repo-16_card 	0
scalar barabasi_100nodes_network.content_distribution 	repo-16_price 	0
scalar barabasi_100nodes_network.content_distribution 	repo-17_card 	0
scalar barabasi_100nodes_network.content_distribution 	repo-17_price 	0
scalar barabasi_100nodes_network.content_distribution 	repo-18_card 	0
scalar barabasi_100nodes_network.content_distribution 	repo-18_price 	0
scalar barabasi_100nodes_network.content_distribution 	repo-19_card 	0
scalar barabasi_100nodes_network.content_distribution 	repo-19_price 	0
scalar barabasi_100nodes_network.content_distribution 	repo-20_card 	0
scalar barabasi_100nodes_network.content_distribution 	repo-20_price 	0
scalar barabasi_100nodes_network.content_distribution 	repo-21_card 	0
scalar barabasi_100nodes_network.content_distribution 	repo-21_price 	0
scalar barabasi_100nodes_network.content_distribution 	repo-22_card 	0
scalar barabasi_100nodes_network.content_distribution 	repo-22_price 	0
scalar barabasi_100nodes_network.content_distribution 	repo-23_card 	0
scalar barabasi_100nodes_network.content_distribution 	repo-23_price 	0
scalar barabasi_100nodes_network.content_distribution 	repo-24_card 	0
scalar barabasi_100nodes_network.content_distribution 	repo-24_price 	0
scalar barabasi_100nodes_network.content_distribution 	repo-25_card 	0
scalar barabasi_100nodes_network.content_distribution 	repo-25_price 	0
scalar barabasi_100nodes_network.content_distribution 	repo-26_card 	0
scalar barabasi_100nodes_network.content_distribution 	repo-26_price 	0
scalar barabasi_100nodes_network.content_distribution 	repo-27_card 	0
scalar barabasi_100nodes_network.content_distribution 	repo-27_price 	0
scalar barabasi_100nodes_network.content_distribution 	repo-28_card 	0
scalar barabasi_100nodes_network.content_distribution 	repo-28_price 	0
scalar barabasi_100nodes_network.content_distribution 	repo-29_card 	0
scalar barabasi_100nodes_network.content_distribution 	repo-29_price 	0
scalar barabasi_100nodes_network.content_distribution 	repo-30_card 	0
scalar barabasi_100nodes_network.content_distribution 	repo-30_price 	0
scalar barabasi_100nodes_network.content_distribution 	repo-31_card 	0
scalar barabasi_100nodes_network.content_distribution 	repo-31_price 	0
scalar barabasi_100nodes_network.content_distribution 	repo-32_card 	0
scalar barabasi_100nodes_network.content_distribution 	repo-32_price 	0
scalar barabasi_100nodes_network.content_distribution 	repo-33_card 	0
scalar barabasi_100nodes_network.content_distribution 	repo-33_price 	0
scalar barabasi_100nodes_network.content_distribution 	repo-34_card 	0
scalar barabasi_100nodes_network.content_distribution 	repo-34_price 	0
scalar barabasi_100nodes_network.content_distribution 	repo-35_card 	0
scalar barabasi_100nodes_network.content_distribution 	repo-35_price 	0
scalar barabasi_100nodes_network.content_distribution 	repo-36_card 	0
scalar barabasi_100nodes_network.content_distribution 	repo-36_price 	0
scalar barabasi_100nodes_network.content_distribution 	repo-37_card 	0
scalar barabasi_100nodes_network.content_distribution 	repo-37_price 	0
scalar barabasi_100nodes_network.content_distribution 	repo-38_card 	0
scalar barabasi_100nodes_network.content_distribution 	repo-38_price 	0
scalar barabasi_100nodes_network.content_distribution 	repo-39_card 	0
scalar barabasi_100nodes_network.content_distribution 	repo-39_price 	0
scalar barabasi_100nodes_network.content_distribution 	repo-40_card 	0
scalar barabasi_100nodes_network.content_distribution 	repo-40_price 	0
scalar barabasi_100nodes_network.content_distribution 	repo-41_card 	0
scalar barabasi_100nodes_network.content_distribution 	repo-41_price 	0
scalar barabasi_100nodes_network.content_distribution 	repo-42_card 	0
scalar barabasi_100nodes_network.content_distribution 	repo-42_price 	0
scalar barabasi_100nodes_network.content_distribution 	repo-43_card 	0
scalar barabasi_100nodes_network.content_distribution 	repo-43_price 	0
scalar barabasi_100nodes_network.content_distribution 	repo-44_card 	0
scalar barabasi_100nodes_network.content_distribution 	repo-44_price 	0
scalar barabasi_100nodes_network.content_distribution 	repo-45_card 	0
scalar barabasi_100nodes_network.content_distribution 	repo-45_price 	0
scalar barabasi_100nodes_network.content_distribution 	repo-46_card 	0
scalar barabasi_100nodes_network.content_distribution 	repo-46_price 	0
scalar barabasi_100nodes_network.content_distribution 	repo-47_card 	0
scalar barabasi_100nodes_network.content_distribution 	repo-47_price 	0
scalar barabasi_100nodes_network.content_distribution 	repo-48_card 	0
scalar barabasi_100nodes_network.content_distribution 	repo-48_price 	0
scalar barabasi_100nodes_network.content_distribution 	repo-49_card 	0
scalar barabasi_100nodes_network.content_distribution 	repo-49_price 	0
scalar barabasi_100nodes_network.content_distribution 	repo-50_card 	0
scalar barabasi_100nodes_network.content_distribution 	repo-50_price 	0
scalar barabasi_100nodes_network.content_distribution 	repo-51_card 	0
scalar barabasi_100nodes_network.content_distribution 	repo-51_price 	0
scalar barabasi_100nodes_network.content_distribution 	repo-52_card 	0
scalar barabasi_100nodes_network.content_distribution 	repo-52_price 	0
scalar barabasi_100nodes_network.content_distribution 	repo-53_card 	0
scalar barabasi_100nodes_network.content_distribution 	repo-53_price 	0
scalar barabasi_100nodes_network.content_distribution 	repo-54_card 	0
scalar barabasi_100nodes_network.content_distribution 	repo-54_price 	0
scalar barabasi_100nodes_network.content_distribution 	repo-55_card 	0
scalar barabasi_100nodes_network.content_distribution 	repo-55_price 	0
scalar barabasi_100nodes_network.content_distribution 	repo-56_card 	0
scalar barabasi_100nodes_network.content_distribution 	repo-56_price 	0
scalar barabasi_100nodes_network.content_distribution 	repo-57_card 	0
scalar barabasi_100nodes_network.content_distribution 	repo-57_price 	0
scalar barabasi_100nodes_network.content_distribution 	repo-58_card 	0
scalar barabasi_100nodes_network.content_distribution 	repo-58_price 	0
scalar barabasi_100nodes_network.content_distribution 	repo-59_card 	0
scalar barabasi_100nodes_network.content_distribution 	repo-59_price 	0
scalar barabasi_100nodes_network.content_distribution 	repo-60_card 	0
scalar barabasi_100nodes_network.content_distribution 	repo-60_price 	0
scalar barabasi_100nodes_network.content_distribution 	repo-61_card 	0
scalar barabasi_100nodes_network.content_distribution 	repo-61_price 	0
scalar barabasi_100nodes_network.content_distribution 	repo-62_card 	0
scalar barabasi_100nodes_network.content_distribution 	repo-62_price 	0
scalar barabasi_100nodes_network.content_distribution 	repo-63_card 	0
scalar barabasi_100nodes_network.content_distribution 	repo-63_price 	0
scalar barabasi_100nodes_network.content_distribution 	repo-64_card 	0
scalar barabasi_100nodes_network.content_distribution 	repo-64_price 	0
scalar barabasi_100nodes_network.content_distribution 	repo-65_card 	0
scalar barabasi_100nodes_network.content_distribution 	repo-65_price 	0
scalar barabasi_100nodes_network.content_distribution 	repo-66_card 	0
scalar barabasi_100nodes_network.content_distribution 	repo-66_price 	0
scalar barabasi_100nodes_network.content_distribution 	repo-67_card 	0
scalar barabasi_100nodes_network.content_distribution 	repo-67_price 	0
scalar barabasi_100nodes_network.content_distribution 	repo-68_card 	0
scalar barabasi_100nodes_network.content_distribution 	repo-68_price 	0
scalar barabasi_100nodes_network.content_distribution 	repo-69_card 	0
scalar barabasi_100nodes_network.content_distribution 	repo-69_price 	0
scalar barabasi_100nodes_network.content_distribution 	repo-70_card 	0
scalar barabasi_100nodes_network.content_distribution 	repo-70_price 	0
scalar barabasi_100nodes_network.content_distribution 	repo-71_card 	0
scalar barabasi_100nodes_network.content_distribution 	repo-71_price 	0
scalar barabasi_100nodes_network.content_distribution 	repo-72_card 	0
scalar barabasi_100nodes_network.content_distribution 	repo-72_price 	0
scalar barabasi_100nodes_network.content_distribution 	repo-73_card 	0
scalar barabasi_100nodes_network.content_distribution 	repo-73_price 	0
scalar barabasi_100nodes_network.content_distribution 	repo-74_card 	0
scalar barabasi_100nodes_network.content_distribution 	repo-74_price 	0
scalar barabasi_100nodes_network.content_distribution 	repo-75_card 	0
scalar barabasi_100nodes_network.content_distribution 	repo-75_price 	0
scalar barabasi_100nodes_network.content_distribution 	repo-76_card 	0
scalar barabasi_100nodes_network.content_distribution 	repo-76_price 	0
scalar barabasi_100nodes_network.content_distribution 	repo-77_card 	0
scalar barabasi_100nodes_network.content_distribution 	repo-77_price 	0
scalar barabasi_100nodes_network.content_distribution 	repo-78_card 	0
scalar barabasi_100nodes_network.content_distribution 	repo-78_price 	0
scalar barabasi_100nodes_network.content_distribution 	repo-79_card 	0
scalar barabasi_100nodes_network.content_distribution 	repo-79_price 	0
scalar barabasi_100nodes_network.content_distribution 	repo-80_card 	0
scalar barabasi_100nodes_network.content_distribution 	repo-80_price 	0
scalar barabasi_100nodes_network.content_distribution 	repo-81_card 	0
scalar barabasi_100nodes_network.content_distribution 	repo-81_price 	0
scalar barabasi_100nodes_network.content_distribution 	repo-82_card 	0
scalar barabasi_100nodes_network.content_distribution 	repo-82_price 	0
scalar barabasi_100nodes_network.content_distribution 	repo-83_card 	0
scalar barabasi_100nodes_network.content_distribution 	repo-83_price 	0
scalar barabasi_100nodes_network.content_distribution 	repo-84_card 	0
scalar barabasi_100nodes_network.content_distribution 	repo-84_price 	0
scalar barabasi_100nodes_network.content_distribution 	repo-85_card 	0
scalar barabasi_100nodes_network.content_distribution 	repo-85_price 	0
scalar barabasi_100nodes_network.content_distribution 	repo-86_card 	0
scalar barabasi_100nodes_network.content_distribution 	repo-86_price 	0
scalar barabasi_100nodes_network.content_distribution 	repo-87_card 	0
scalar barabasi_100nodes_network.content_distribution 	repo-87_price 	0
scalar barabasi_100nodes_network.content_distribution 	repo-88_card 	0
scalar barabasi_100nodes_network.content_distribution 	repo-88_price 	0
scalar barabasi_100nodes_network.content_distribution 	repo-89_card 	0
scalar barabasi_100nodes_network.content_distribution 	repo-89_price 	0
scalar barabasi_100nodes_network.content_distribution 	repo-90_card 	0
scalar barabasi_100nodes_network.content_distribution 	repo-90_price 	0
scalar barabasi_100nodes_network.content_distribution 	repo-91_card 	0
scalar barabasi_100nodes_network.content_distribution 	repo-91_price 	0
scalar barabasi_100nodes_network.content_distribution 	repo-92_card 	0
scalar barabasi_100nodes_network.content_distribution 	repo-92_price 	0
scalar barabasi_100nodes_network.content_distribution 	repo-93_card 	0
scalar barabasi_100nodes_network.content_distribution 	repo-93_price 	0
scalar barabasi_100nodes_network.content_distribution 	repo-94_card 	0
scalar barabasi_100nodes_network.content_distribution 	repo-94_price 	0
scalar barabasi_100nodes_network.content_distribution 	repo-95_card 	0
scalar barabasi_100nodes_network.content_distribution 	repo-95_price 	0
scalar barabasi_100nodes_network.content_distribution 	repo-96_card 	0
scalar barabasi_100nodes_network.content_distribution 	repo-96_price 	0
scalar barabasi_100nodes_network.content_distribution 	repo-97_card 	0
scalar barabasi_100nodes_network.content_distribution 	repo-97_price 	0
scalar barabasi_100nodes_network.content_distribution 	repo-98_card 	0
scalar barabasi_100nodes_network.content_distribution 	repo-98_price 	0
scalar barabasi_100nodes_network.content_distribution 	repo-99_card 	0
scalar barabasi_100nodes_network.content_distribution 	repo-99_price 	0
scalar barabasi_100nodes_network.statistics 	stabilization_time 	6331.8
scalar barabasi_100nodes_network.statistics 	p_hit 	0.50106386119804
scalar barabasi_100nodes_network.statistics 	interests 	299056.87
scalar barabasi_100nodes_network.statistics 	data 	118984.12
scalar barabasi_100nodes_network.statistics 	hdistance 	0.82863520736178
scalar barabasi_100nodes_network.statistics 	avg_time 	0
scalar barabasi_100nodes_network.statistics 	downloads 	18007275
scalar barabasi_100nodes_network.statistics 	total_cost 	0
scalar barabasi_100nodes_network.statistics 	total_replicas 	1000000
scalar barabasi_100nodes_network.statistics 	"representations_downloaded 1:" 	0
scalar barabasi_100nodes_network.statistics 	"slots_per_representation 100:" 	0
scalar barabasi_100nodes_network.statistics 	inner_hit 	0.83214473039369
scalar barabasi_100nodes_network.statistics 	execution_time 	2503
scalar barabasi_100nodes_network.node[0].core_layer 	interests[0] 	2604078
scalar barabasi_100nodes_network.node[0].core_layer 	data[0] 	2198573
scalar barabasi_100nodes_network.node[0].core_layer 	slots_sent[face$o[1]->client[0]] 	18064400
scalar barabasi_100nodes_network.node[0].core_layer 	slots_sent[face$o[2]->node[1]] 	4213100
scalar barabasi_100nodes_network.node[0].core_layer 	slots_sent[face$o[3]->node[2]] 	157843700
scalar barabasi_100nodes_network.node[0].core_layer 	slots_sent[face$o[4]->node[5]] 	13459500
scalar barabasi_100nodes_network.node[0].core_layer 	slots_sent[face$o[5]->node[10]] 	7907300
scalar barabasi_100nodes_network.node[0].core_layer 	slots_sent[face$o[6]->node[11]] 	4234500
scalar barabasi_100nodes_network.node[0].core_layer 	slots_sent[face$o[7]->node[15]] 	6787700
scalar barabasi_100nodes_network.node[0].core_layer 	slots_sent[face$o[8]->node[21]] 	9193500
scalar barabasi_100nodes_network.node[0].core_layer 	slots_sent[face$o[9]->node[22]] 	2965800
scalar barabasi_100nodes_network.node[0].core_layer 	slots_sent[face$o[10]->node[28]] 	3009300
scalar barabasi_100nodes_network.node[0].core_layer 	slots_sent[face$o[11]->node[37]] 	4249300
scalar barabasi_100nodes_network.node[0].core_layer 	slots_sent[face$o[12]->node[44]] 	4161100
scalar barabasi_100nodes_network.node[0].core_layer 	slots_sent[face$o[13]->node[58]] 	7906000
scalar barabasi_100nodes_network.node[0].core_layer 	slots_sent[face$o[14]->node[73]] 	7938200
scalar barabasi_100nodes_network.node[0].core_layer 	slots_sent[face$o[15]->node[74]] 	4229000
scalar barabasi_100nodes_network.node[0].core_layer 	slots_sent[face$o[16]->node[93]] 	4245400
scalar barabasi_100nodes_network.node[0].content_store 	p_hit[0] 	0.15571922192807
scalar barabasi_100nodes_network.node[0].content_store 	hits[0] 	405505
scalar barabasi_100nodes_network.node[0].content_store 	misses[0] 	2198573
scalar barabasi_100nodes_network.node[0].content_store 	decision_yes[0] 	2198573
scalar barabasi_100nodes_network.node[0].content_store 	decision_no[0] 	0
scalar barabasi_100nodes_network.node[0].content_store 	decision_ratio[0] 	1
scalar barabasi_100nodes_network.node[1].core_layer 	interests[1] 	180013
scalar barabasi_100nodes_network.node[1].core_layer 	data[1] 	42131
scalar barabasi_100nodes_network.node[1].core_layer 	slots_sent[face$o[1]->client[1]] 	18001300
scalar barabasi_100nodes_network.node[1].core_layer 	slots_sent[face$o[2]->node[0]] 	0
scalar barabasi_100nodes_network.node[1].content_store 	p_hit[1] 	0.76595579208168
scalar barabasi_100nodes_network.node[1].content_store 	hits[1] 	137882
scalar barabasi_100nodes_network.node[1].content_store 	misses[1] 	42131
scalar barabasi_100nodes_network.node[1].content_store 	decision_yes[1] 	42131
scalar barabasi_100nodes_network.node[1].content_store 	decision_no[1] 	0
scalar barabasi_100nodes_network.node[1].content_store 	decision_ratio[1] 	1
scalar barabasi_100nodes_network.node[2].core_layer 	interests[2] 	2818794
scalar barabasi_100nodes_network.node[2].core_layer 	data[2] 	2195547
scalar barabasi_100nodes_network.node[2].core_layer 	slots_sent[face$o[1]->client[2]] 	18064400
scalar barabasi_100nodes_network.node[2].core_layer 	slots_sent[face$o[2]->node[0]] 	23223500
scalar barabasi_100nodes_network.node[2].core_layer 	slots_sent[face$o[3]->node[3]] 	7886900
scalar barabasi_100nodes_network.node[2].core_layer 	slots_sent[face$o[4]->node[4]] 	19120700
scalar barabasi_100nodes_network.node[2].core_layer 	slots_sent[face$o[5]->node[6]] 	4245800
scalar barabasi_100nodes_network.node[2].core_layer 	slots_sent[face$o[6]->node[7]] 	43343000
scalar barabasi_100nodes_network.node[2].core_layer 	slots_sent[face$o[7]->node[8]] 	27878800
scalar barabasi_100nodes_network.node[2].core_layer 	slots_sent[face$o[8]->node[13]] 	16792500
scalar barabasi_100nodes_network.node[2].core_layer 	slots_sent[face$o[9]->node[16]] 	24501900
scalar barabasi_100nodes_network.node[2].core_layer 	slots_sent[face$o[10]->node[18]] 	10103000
scalar barabasi_100nodes_network.node[2].core_layer 	slots_sent[face$o[11]->node[25]] 	7895200
scalar barabasi_100nodes_network.node[2].core_layer 	slots_sent[face$o[12]->node[26]] 	10082700
scalar barabasi_100nodes_network.node[2].core_layer 	slots_sent[face$o[13]->node[29]] 	4177900
scalar barabasi_100nodes_network.node[2].core_layer 	slots_sent[face$o[14]->node[32]] 	7142000
scalar barabasi_100nodes_network.node[2].core_layer 	slots_sent[face$o[15]->node[33]] 	4251200
scalar barabasi_100nodes_network.node[2].core_layer 	slots_sent[face$o[16]->node[34]] 	4225900
scalar barabasi_100nodes_network.node[2].core_layer 	slots_sent[face$o[17]->node[36]] 	7912100
scalar barabasi_100nodes_network.node[2].core_layer 	slots_sent[face$o[18]->node[41]] 	16920800
scalar barabasi_100nodes_network.node[2].core_layer 	slots_sent[face$o[19]->node[45]] 	4254100
scalar barabasi_100nodes_network.node[2].core_layer 	slots_sent[face$o[20]->node[59]] 	4212000
scalar barabasi_100nodes_network.node[2].core_layer 	slots_sent[face$o[21]->node[62]] 	11443300
scalar barabasi_100nodes_network.node[2].core_layer 	slots_sent[face$o[22]->node[79]] 	4201700
scalar barabasi_100nodes_network.node[2].content_store 	p_hit[2] 	0.22110413176699
scalar barabasi_100nodes_network.node[2].content_store 	hits[2] 	623247
scalar barabasi_100nodes_network.node[2].content_store 	misses[2] 	2195547
scalar barabasi_100nodes_network.node[2].content_store 	decision_yes[2] 	2195547
scalar barabasi_100nodes_network.node[2].content_store 	decision_no[2] 	0
scalar barabasi_100nodes_network.node[2].content_store 	decision_ratio[2] 	1
scalar barabasi_100nodes_network.node[3].core_layer 	interests[3] 	222186
scalar barabasi_100nodes_network.node[3].core_layer 	data[3] 	78869
scalar barabasi_100nodes_network.node[3].core_layer 	slots_sent[face$o[1]->client[3]] 	18003300
scalar barabasi_100nodes_network.node[3].core_layer 	slots_sent[face$o[2]->node[2]] 	0
scalar barabasi_100nodes_network.node[3].core_layer 	slots_sent[face$o[3]->node[52]] 	4215300
scalar barabasi_100nodes_network.node[3].content_store 	p_hit[3] 	0.64503164015735
scalar barabasi_100nodes_network.node[3].content_store 	hits[3] 	143317
scalar barabasi_100nodes_network.node[3].content_store 	misses[3] 	78869
scalar barabasi_100nodes_network.node[3].content_store 	decision_yes[3] 	78869
scalar barabasi_100nodes_network.node[3].content_store 	decision_no[3] 	0
scalar barabasi_100nodes_network.node[3].content_store 	decision_ratio[3] 	1
scalar barabasi_100nodes_network.node[4].core_layer 	interests[4] 	355749
scalar barabasi_100nodes_network.node[4].core_layer 	data[4] 	191207
scalar barabasi_100nodes_network.node[4].core_layer 	slots_sent[face$o[1]->client[4]] 	18041300
scalar barabasi_100nodes_network.node[4].core_layer 	slots_sent[face$o[2]->node[2]] 	0
scalar barabasi_100nodes_network.node[4].core_layer 	slots_sent[face$o[3]->node[27]] 	5406400
scalar barabasi_100nodes_network.node[4].core_layer 	slots_sent[face$o[4]->node[30]] 	7913900
scalar barabasi_100nodes_network.node[4].core_layer 	slots_sent[face$o[5]->node[85]] 	4213300
scalar barabasi_100nodes_network.node[4].content_store 	p_hit[4] 	0.46252273372518
scalar barabasi_100nodes_network.node[4].content_store 	hits[4] 	164542
scalar barabasi_100nodes_network.node[4].content_store 	misses[4] 	191207
scalar barabasi_100nodes_network.node[4].content_store 	decision_yes[4] 	191207
scalar barabasi_100nodes_network.node[4].content_store 	decision_no[4] 	0
scalar barabasi_100nodes_network.node[4].content_store 	decision_ratio[4] 	1
scalar barabasi_100nodes_network.node[5].core_layer 	interests[5] 	933289
scalar barabasi_100nodes_network.node[5].core_layer 	data[5] 	564620
scalar barabasi_100nodes_network.node[5].core_layer 	slots_sent[face$o[1]->client[5]] 	18047800
scalar barabasi_100nodes_network.node[5].core_layer 	slots_sent[face$o[2]->node[0]] 	64278400
scalar barabasi_100nodes_network.node[5].core_layer 	slots_sent[face$o[3]->node[9]] 	3023600
scalar barabasi_100nodes_network.node[5].core_layer 	slots_sent[face$o[4]->node[35]] 	7979100
scalar barabasi_100nodes_network.node[5].content_store 	p_hit[5] 	0.39502126351002
scalar barabasi_100nodes_network.node[5].content_store 	hits[5] 	368669
scalar barabasi_100nodes_network.node[5].content_store 	misses[5] 	564620
scalar barabasi_100nodes_network.node[5].content_store 	decision_yes[5] 	564620
scalar barabasi_100nodes_network.node[5].content_store 	decision_no[5] 	0
scalar barabasi_100nodes_network.node[5].content_store 	decision_ratio[5] 	1
scalar barabasi_100nodes_network.node[6].core_layer 	interests[6] 	180481
scalar barabasi_100nodes_network.node[6].core_layer 	data[6] 	42458
scalar barabasi_100nodes_network.node[6].core_layer 	slots_sent[face$o[1]->client[6]] 	18048100
scalar barabasi_100nodes_network.node[6].core_layer 	slots_sent[face$o[2]->node[2]] 	0
scalar barabasi_100nodes_network.node[6].content_store 	p_hit[6] 	0.76475086020135
scalar barabasi_100nodes_network.node[6].content_store 	hits[6] 	138023
scalar barabasi_100nodes_network.node[6].content_store 	misses[6] 	42458
scalar barabasi_100nodes_network.node[6].content_store 	decision_yes[6] 	42458
scalar barabasi_100nodes_network.node[6].content_store 	decision_no[6] 	0
scalar barabasi_100nodes_network.node[6].content_store 	decision_ratio[6] 	1
scalar barabasi_100nodes_network.node[7].core_layer 	interests[7] 	636113
scalar barabasi_100nodes_network.node[7].core_layer 	data[7] 	433430
scalar barabasi_100nodes_network.node[7].core_layer 	slots_sent[face$o[1]->client[7]] 	17987100
scalar barabasi_100nodes_network.node[7].core_layer 	slots_sent[face$o[2]->node[2]] 	0
scalar barabasi_100nodes_network.node[7].core_layer 	slots_sent[face$o[3]->node[23]] 	23662700
scalar barabasi_100nodes_network.node[7].core_layer 	slots_sent[face$o[4]->node[31]] 	14737700
scalar barabasi_100nodes_network.node[7].core_layer 	slots_sent[face$o[5]->node[49]] 	4230400
scalar barabasi_100nodes_network.node[7].core_layer 	slots_sent[face$o[6]->node[90]] 	2993400
scalar barabasi_100nodes_network.node[7].content_store 	p_hit[7] 	0.31862735080088
scalar barabasi_100nodes_network.node[7].content_store 	hits[7] 	202683
scalar barabasi_100nodes_network.node[7].content_store 	misses[7] 	433430
scalar barabasi_100nodes_network.node[7].content_store 	decision_yes[7] 	433430
scalar barabasi_100nodes_network.node[7].content_store 	decision_no[7] 	0
scalar barabasi_100nodes_network.node[7].content_store 	decision_ratio[7] 	1
scalar barabasi_100nodes_network.node[8].core_layer 	interests[8] 	469770
scalar barabasi_100nodes_network.node[8].core_layer 	data[8] 	278788
scalar barabasi_100nodes_network.node[8].core_layer 	slots_sent[face$o[1]->client[8]] 	17980500
scalar barabasi_100nodes_network.node[8].core_layer 	slots_sent[face$o[2]->node[2]] 	0
scalar barabasi_100nodes_network.node[8].core_layer 	slots_sent[face$o[3]->node[12]] 	4196900
scalar barabasi_100nodes_network.node[8].core_layer 	slots_sent[face$o[4]->node[14]] 	4219200
scalar barabasi_100nodes_network.node[8].core_layer 	slots_sent[face$o[5]->node[17]] 	4220300
scalar barabasi_100nodes_network.node[8].core_layer 	slots_sent[face$o[6]->node[39]] 	7883900
scalar barabasi_100nodes_network.node[8].core_layer 	slots_sent[face$o[7]->node[61]] 	4257300
scalar barabasi_100nodes_network.node[8].core_layer 	slots_sent[face$o[8]->node[66]] 	4218900
scalar barabasi_100nodes_network.node[8].content_store 	p_hit[8] 	0.40654362773272
scalar barabasi_100nodes_network.node[8].content_store 	hits[8] 	190982
scalar barabasi_100nodes_network.node[8].content_store 	misses[8] 	278788
scalar barabasi_100nodes_network.node[8].content_store 	decision_yes[8] 	278788
scalar barabasi_100nodes_network.node[8].content_store 	decision_no[8] 	0
scalar barabasi_100nodes_network.node[8].content_store 	decision_ratio[8] 	1
scalar barabasi_100nodes_network.node[9].core_layer 	interests[9] 	609546
scalar barabasi_100nodes_network.node[9].core_layer 	repo_load[9] 	467720
scalar barabasi_100nodes_network.node[9].core_layer 	data[9] 	30236
scalar barabasi_100nodes_network.node[9].core_layer 	slots_sent[face$o[1]->client[9]] 	17952100
scalar barabasi_100nodes_network.node[9].core_layer 	slots_sent[face$o[2]->node[5]] 	43002500
scalar barabasi_100nodes_network.node[9].content_store 	p_hit[9] 	0.1830706788331
scalar barabasi_100nodes_network.node[9].content_store 	hits[9] 	111590
scalar barabasi_100nodes_network.node[9].content_store 	misses[9] 	497956
scalar barabasi_100nodes_network.node[9].content_store 	decision_yes[9] 	30236
scalar barabasi_100nodes_network.node[9].content_store 	decision_no[9] 	467720
scalar barabasi_100nodes_network.node[9].content_store 	decision_ratio[9] 	0.060720224276844
scalar barabasi_100nodes_network.node[10].core_layer 	interests[10] 	222288
scalar barabasi_100nodes_network.node[10].core_layer 	data[10] 	79073
scalar barabasi_100nodes_network.node[10].core_layer 	slots_sent[face$o[1]->client[10]] 	17997400
scalar barabasi_100nodes_network.node[10].core_layer 	slots_sent[face$o[2]->node[0]] 	0
scalar barabasi_100nodes_network.node[10].core_layer 	slots_sent[face$o[3]->node[71]] 	4231400
scalar barabasi_100nodes_network.node[10].content_store 	p_hit[10] 	0.64427679406896
scalar barabasi_100nodes_network.node[10].content_store 	hits[10] 	143215
scalar barabasi_100nodes_network.node[10].content_store 	misses[10] 	79073
scalar barabasi_100nodes_network.node[10].content_store 	decision_yes[10] 	79073
scalar barabasi_100nodes_network.node[10].content_store 	decision_no[10] 	0
scalar barabasi_100nodes_network.node[10].content_store 	decision_ratio[10] 	1
scalar barabasi_100nodes_network.node[11].core_layer 	interests[11] 	180181
scalar barabasi_100nodes_network.node[11].core_layer 	data[11] 	42345
scalar barabasi_100nodes_network.node[11].core_layer 	slots_sent[face$o[1]->client[11]] 	18018100
scalar barabasi_100nodes_network.node[11].core_layer 	slots_sent[face$o[2]->node[0]] 	0
scalar barabasi_100nodes_network.node[11].content_store 	p_hit[11] 	0.76498631931225
scalar barabasi_100nodes_network.node[11].content_store 	hits[11] 	137836
scalar barabasi_100nodes_network.node[11].content_store 	misses[11] 	42345
scalar barabasi_100nodes_network.node[11].content_store 	decision_yes[11] 	42345
scalar barabasi_100nodes_network.node[11].content_store 	decision_no[11] 	0
scalar barabasi_100nodes_network.node[11].content_store 	decision_ratio[11] 	1
scalar barabasi_100nodes_network.node[12].core_layer 	interests[12] 	179862
scalar barabasi_100nodes_network.node[12].core_layer 	data[12] 	41969
scalar barabasi_100nodes_network.node[12].core_layer 	slots_sent[face$o[1]->client[12]] 	17986200
scalar barabasi_100nodes_network.node[12].core_layer 	slots_sent[face$o[2]->node[8]] 	0
scalar barabasi_100nodes_network.node[12].content_store 	p_hit[12] 	0.76665999488497
scalar barabasi_100nodes_network.node[12].content_store 	hits[12] 	137893
scalar barabasi_100nodes_network.node[12].content_store 	misses[12] 	41969
scalar barabasi_100nodes_network.node[12].content_store 	decision_yes[12] 	41969
scalar barabasi_100nodes_network.node[12].content_store 	decision_no[12] 	0
scalar barabasi_100nodes_network.node[12].content_store 	decision_ratio[12] 	1
scalar barabasi_100nodes_network.node[13].core_layer 	interests[13] 	324740
scalar barabasi_100nodes_network.node[13].core_layer 	data[13] 	167925
scalar barabasi_100nodes_network.node[13].core_layer 	slots_sent[face$o[1]->client[13]] 	18007800
scalar barabasi_100nodes_network.node[13].core_layer 	slots_sent[face$o[2]->node[2]] 	0
scalar barabasi_100nodes_network.node[13].core_layer 	slots_sent[face$o[3]->node[67]] 	4207900
scalar barabasi_100nodes_network.node[13].core_layer 	slots_sent[face$o[4]->node[78]] 	10258300
scalar barabasi_100nodes_network.node[13].content_store 	p_hit[13] 	0.4828940075137
scalar barabasi_100nodes_network.node[13].content_store 	hits[13] 	156815
scalar barabasi_100nodes_network.node[13].content_store 	misses[13] 	167925
scalar barabasi_100nodes_network.node[13].content_store 	decision_yes[13] 	167925
scalar barabasi_100nodes_network.node[13].content_store 	decision_no[13] 	0
scalar barabasi_100nodes_network.node[13].content_store 	decision_ratio[13] 	1
scalar barabasi_100nodes_network.node[14].core_layer 	interests[14] 	179689
scalar barabasi_100nodes_network.node[14].core_layer 	data[14] 	42192
scalar barabasi_100nodes_network.node[14].core_layer 	slots_sent[face$o[1]->client[14]] 	17968900
scalar barabasi_100nodes_network.node[14].core_layer 	slots_sent[face$o[2]->node[8]] 	0
scalar barabasi_100nodes_network.node[14].content_store 	p_hit[14] 	0.76519430794317
scalar barabasi_100nodes_network.node[14].content_store 	hits[14] 	137497
scalar barabasi_100nodes_network.node[14].content_store 	misses[14] 	42192
scalar barabasi_100nodes_network.node[14].content_store 	decision_yes[14] 	42192
scalar barabasi_100nodes_network.node[14].content_store 	decision_no[14] 	0
scalar barabasi_100nodes_network.node[14].content_store 	decision_ratio[14] 	1
scalar barabasi_100nodes_network.node[15].core_layer 	interests[15] 	899495
scalar barabasi_100nodes_network.node[15].core_layer 	repo_load[15] 	722842
scalar barabasi_100nodes_network.node[15].core_layer 	data[15] 	67877
scalar barabasi_100nodes_network.node[15].core_layer 	slots_sent[face$o[1]->client[15]] 	18015900
scalar barabasi_100nodes_network.node[15].core_layer 	slots_sent[face$o[2]->node[0]] 	64751700
scalar barabasi_100nodes_network.node[15].core_layer 	slots_sent[face$o[3]->node[40]] 	4182300
scalar barabasi_100nodes_network.node[15].core_layer 	slots_sent[face$o[4]->node[56]] 	2999600
scalar barabasi_100nodes_network.node[15].content_store 	p_hit[15] 	0.12093007743234
scalar barabasi_100nodes_network.node[15].content_store 	hits[15] 	108776
scalar barabasi_100nodes_network.node[15].content_store 	misses[15] 	790719
scalar barabasi_100nodes_network.node[15].content_store 	decision_yes[15] 	67877
scalar barabasi_100nodes_network.node[15].content_store 	decision_no[15] 	722842
scalar barabasi_100nodes_network.node[15].content_store 	decision_ratio[15] 	0.085842125963838
scalar barabasi_100nodes_network.node[16].core_layer 	interests[16] 	404657
scalar barabasi_100nodes_network.node[16].core_layer 	data[16] 	245019
scalar barabasi_100nodes_network.node[16].core_layer 	slots_sent[face$o[1]->client[16]] 	18043500
scalar barabasi_100nodes_network.node[16].core_layer 	slots_sent[face$o[2]->node[2]] 	0
scalar barabasi_100nodes_network.node[16].core_layer 	slots_sent[face$o[3]->node[19]] 	18214400
scalar barabasi_100nodes_network.node[16].core_layer 	slots_sent[face$o[4]->node[20]] 	4207800
scalar barabasi_100nodes_network.node[16].content_store 	p_hit[16] 	0.39450201034456
scalar barabasi_100nodes_network.node[16].content_store 	hits[16] 	159638
scalar barabasi_100nodes_network.node[16].content_store 	misses[16] 	245019
scalar barabasi_100nodes_network.node[16].content_store 	decision_yes[16] 	245019
scalar barabasi_100nodes_network.node[16].content_store 	decision_no[16] 	0
scalar barabasi_100nodes_network.node[16].content_store 	decision_ratio[16] 	1
scalar barabasi_100nodes_network.node[17].core_layer 	interests[17] 	180077
scalar barabasi_100nodes_network.node[17].core_layer 	data[17] 	42203
scalar barabasi_100nodes_network.node[17].core_layer 	slots_sent[face$o[1]->client[17]] 	18007700
scalar barabasi_100nodes_network.node[17].core_layer 	slots_sent[face$o[2]->node[8]] 	0
scalar barabasi_100nodes_network.node[17].content_store 	p_hit[17] 	0.76563914325539
scalar barabasi_100nodes_network.node[17].content_store 	hits[17] 	137874
scalar barabasi_100nodes_network.node[17].content_store 	misses[17] 	42203
scalar barabasi_100nodes_network.node[17].content_store 	decision_yes[17] 	42203
scalar barabasi_100nodes_network.node[17].content_store 	decision_no[17] 	0
scalar barabasi_100nodes_network.node[17].content_store 	decision_ratio[17] 	1
scalar barabasi_100nodes_network.node[18].core_layer 	interests[18] 	306449
scalar barabasi_100nodes_network.node[18].core_layer 	repo_load[18] 	71783
scalar barabasi_100nodes_network.node[18].core_layer 	data[18] 	101030
scalar barabasi_100nodes_network.node[18].core_layer 	slots_sent[face$o[1]->client[18]] 	17947200
scalar barabasi_100nodes_network.node[18].core_layer 	slots_sent[face$o[2]->node[2]] 	0
scalar barabasi_100nodes_network.node[18].core_layer 	slots_sent[face$o[3]->node[53]] 	4216800
scalar barabasi_100nodes_network.node[18].core_layer 	slots_sent[face$o[4]->node[68]] 	4234200
scalar barabasi_100nodes_network.node[18].core_layer 	slots_sent[face$o[5]->node[72]] 	4246700
scalar barabasi_100nodes_network.node[18].content_store 	p_hit[18] 	0.43607908656905
scalar barabasi_100nodes_network.node[18].content_store 	hits[18] 	133636
scalar barabasi_100nodes_network.node[18].content_store 	misses[18] 	172813
scalar barabasi_100nodes_network.node[18].content_store 	decision_yes[18] 	101030
scalar barabasi_100nodes_network.node[18].content_store 	decision_no[18] 	71783
scalar barabasi_100nodes_network.node[18].content_store 	decision_ratio[18] 	0.58462036999531
scalar barabasi_100nodes_network.node[19].core_layer 	interests[19] 	349948
scalar barabasi_100nodes_network.node[19].core_layer 	data[19] 	182144
scalar barabasi_100nodes_network.node[19].core_layer 	slots_sent[face$o[1]->client[19]] 	18076400
scalar barabasi_100nodes_network.node[19].core_layer 	slots_sent[face$o[2]->node[16]] 	0
scalar barabasi_100nodes_network.node[19].core_layer 	slots_sent[face$o[3]->node[63]] 	4242800
scalar barabasi_100nodes_network.node[19].core_layer 	slots_sent[face$o[4]->node[70]] 	4216000
scalar barabasi_100nodes_network.node[19].core_layer 	slots_sent[face$o[5]->node[80]] 	4242000
scalar barabasi_100nodes_network.node[19].core_layer 	slots_sent[face$o[6]->node[89]] 	4217600
scalar barabasi_100nodes_network.node[19].content_store 	p_hit[19] 	0.47951124167019
scalar barabasi_100nodes_network.node[19].content_store 	hits[19] 	167804
scalar barabasi_100nodes_network.node[19].content_store 	misses[19] 	182144
scalar barabasi_100nodes_network.node[19].content_store 	decision_yes[19] 	182144
scalar barabasi_100nodes_network.node[19].content_store 	decision_no[19] 	0
scalar barabasi_100nodes_network.node[19].content_store 	decision_ratio[19] 	1
scalar barabasi_100nodes_network.node[20].core_layer 	interests[20] 	179604
scalar barabasi_100nodes_network.node[20].core_layer 	data[20] 	42078
scalar barabasi_100nodes_network.node[20].core_layer 	slots_sent[face$o[1]->client[20]] 	17960400
scalar barabasi_100nodes_network.node[20].core_layer 	slots_sent[face$o[2]->node[16]] 	0
scalar barabasi_100nodes_network.node[20].content_store 	p_hit[20] 	0.76571791274136
scalar barabasi_100nodes_network.node[20].content_store 	hits[20] 	137526
scalar barabasi_100nodes_network.node[20].content_store 	misses[20] 	42078
scalar barabasi_100nodes_network.node[20].content_store 	decision_yes[20] 	42078
scalar barabasi_100nodes_network.node[20].content_store 	decision_no[20] 	0
scalar barabasi_100nodes_network.node[20].content_store 	decision_ratio[20] 	1
scalar barabasi_100nodes_network.node[21].core_layer 	interests[21] 	240070
scalar barabasi_100nodes_network.node[21].core_layer 	data[21] 	91935
scalar barabasi_100nodes_network.node[21].core_layer 	slots_sent[face$o[1]->client[21]] 	17960800
scalar barabasi_100nodes_network.node[21].core_layer 	slots_sent[face$o[2]->node[0]] 	0
scalar barabasi_100nodes_network.node[21].core_layer 	slots_sent[face$o[3]->node[24]] 	3026100
scalar barabasi_100nodes_network.node[21].core_layer 	slots_sent[face$o[4]->node[57]] 	3020100
scalar barabasi_100nodes_network.node[21].content_store 	p_hit[21] 	0.61704919398509
scalar barabasi_100nodes_network.node[21].content_store 	hits[21] 	148135
scalar barabasi_100nodes_network.node[21].content_store 	misses[21] 	91935
scalar barabasi_100nodes_network.node[21].content_store 	decision_yes[21] 	91935
scalar barabasi_100nodes_network.node[21].content_store 	decision_no[21] 	0
scalar barabasi_100nodes_network.node[21].content_store 	decision_ratio[21] 	1
scalar barabasi_100nodes_network.node[22].core_layer 	interests[22] 	179406
scalar barabasi_100nodes_network.node[22].core_layer 	repo_load[22] 	46460
scalar barabasi_100nodes_network.node[22].core_layer 	data[22] 	29658
scalar barabasi_100nodes_network.node[22].core_layer 	slots_sent[face$o[1]->client[22]] 	17940600
scalar barabasi_100nodes_network.node[22].core_layer 	slots_sent[face$o[2]->node[0]] 	0
scalar barabasi_100nodes_network.node[22].content_store 	p_hit[22] 	0.57572210516928
scalar barabasi_100nodes_network.node[22].content_store 	hits[22] 	103288
scalar barabasi_100nodes_network.node[22].content_store 	misses[22] 	76118
scalar barabasi_100nodes_network.node[22].content_store 	decision_yes[22] 	29658
scalar barabasi_100nodes_network.node[22].content_store 	decision_no[22] 	46460
scalar barabasi_100nodes_network.node[22].content_store 	decision_ratio[22] 	0.38963188733283
scalar barabasi_100nodes_network.node[23].core_layer 	interests[23] 	417679
scalar barabasi_100nodes_network.node[23].core_layer 	data[23] 	236627
scalar barabasi_100nodes_network.node[23].core_layer 	slots_sent[face$o[1]->client[23]] 	18053400
scalar barabasi_100nodes_network.node[23].core_layer 	slots_sent[face$o[2]->node[7]] 	0
scalar barabasi_100nodes_network.node[23].core_layer 	slots_sent[face$o[3]->node[46]] 	7951200
scalar barabasi_100nodes_network.node[23].core_layer 	slots_sent[face$o[4]->node[47]] 	3018100
scalar barabasi_100nodes_network.node[23].core_layer 	slots_sent[face$o[5]->node[51]] 	4263000
scalar barabasi_100nodes_network.node[23].core_layer 	slots_sent[face$o[6]->node[83]] 	4208000
scalar barabasi_100nodes_network.node[23].core_layer 	slots_sent[face$o[7]->node[86]] 	4274200
scalar barabasi_100nodes_network.node[23].content_store 	p_hit[23] 	0.43347163730999
scalar barabasi_100nodes_network.node[23].content_store 	hits[23] 	181052
scalar barabasi_100nodes_network.node[23].content_store 	misses[23] 	236627
scalar barabasi_100nodes_network.node[23].content_store 	decision_yes[23] 	236627
scalar barabasi_100nodes_network.node[23].content_store 	decision_no[23] 	0
scalar barabasi_100nodes_network.node[23].content_store 	decision_ratio[23] 	1
scalar barabasi_100nodes_network.node[24].core_layer 	interests[24] 	180438
scalar barabasi_100nodes_network.node[24].core_layer 	repo_load[24] 	46589
scalar barabasi_100nodes_network.node[24].core_layer 	data[24] 	30261
scalar barabasi_100nodes_network.node[24].core_layer 	slots_sent[face$o[1]->client[24]] 	18043800
scalar barabasi_100nodes_network.node[24].core_layer 	slots_sent[face$o[2]->node[21]] 	0
scalar barabasi_100nodes_network.node[24].content_store 	p_hit[24] 	0.57409193185471
scalar barabasi_100nodes_network.node[24].content_store 	hits[24] 	103588
scalar barabasi_100nodes_network.node[24].content_store 	misses[24] 	76850
scalar barabasi_100nodes_network.node[24].content_store 	decision_yes[24] 	30261
scalar barabasi_100nodes_network.node[24].content_store 	decision_no[24] 	46589
scalar barabasi_100nodes_network.node[24].content_store 	decision_ratio[24] 	0.39376707872479
scalar barabasi_100nodes_network.node[25].core_layer 	interests[25] 	222962
scalar barabasi_100nodes_network.node[25].core_layer 	data[25] 	78952
scalar barabasi_100nodes_network.node[25].core_layer 	slots_sent[face$o[1]->client[25]] 	18062200
scalar barabasi_100nodes_network.node[25].core_layer 	slots_sent[face$o[2]->node[2]] 	0
scalar barabasi_100nodes_network.node[25].core_layer 	slots_sent[face$o[3]->node[38]] 	4234000
scalar barabasi_100nodes_network.node[25].content_store 	p_hit[25] 	0.64589481615701
scalar barabasi_100nodes_network.node[25].content_store 	hits[25] 	144010
scalar barabasi_100nodes_network.node[25].content_store 	misses[25] 	78952
scalar barabasi_100nodes_network.node[25].content_store 	decision_yes[25] 	78952
scalar barabasi_100nodes_network.node[25].content_store 	decision_no[25] 	0
scalar barabasi_100nodes_network.node[25].content_store 	decision_ratio[25] 	1
scalar barabasi_100nodes_network.node[26].core_layer 	interests[26] 	301003
scalar barabasi_100nodes_network.node[26].core_layer 	repo_load[26] 	84995
scalar barabasi_100nodes_network.node[26].core_layer 	data[26] 	100827
scalar barabasi_100nodes_network.node[26].core_layer 	slots_sent[face$o[1]->client[26]] 	18014700
scalar barabasi_100nodes_network.node[26].core_layer 	slots_sent[face$o[2]->node[2]] 	0
scalar barabasi_100nodes_network.node[26].core_layer 	slots_sent[face$o[3]->node[77]] 	7861300
scalar barabasi_100nodes_network.node[26].core_layer 	slots_sent[face$o[4]->node[91]] 	4224300
scalar barabasi_100nodes_network.node[26].content_store 	p_hit[26] 	0.38265731570782
scalar barabasi_100nodes_network.node[26].content_store 	hits[26] 	115181
scalar barabasi_100nodes_network.node[26].content_store 	misses[26] 	185822
scalar barabasi_100nodes_network.node[26].content_store 	decision_yes[26] 	100827
scalar barabasi_100nodes_network.node[26].content_store 	decision_no[26] 	84995
scalar barabasi_100nodes_network.node[26].content_store 	decision_ratio[26] 	0.5425999074383
scalar barabasi_100nodes_network.node[27].core_layer 	interests[27] 	222564
scalar barabasi_100nodes_network.node[27].core_layer 	repo_load[27] 	65460
scalar barabasi_100nodes_network.node[27].core_layer 	data[27] 	54064
scalar barabasi_100nodes_network.node[27].core_layer 	slots_sent[face$o[1]->client[27]] 	18014900
scalar barabasi_100nodes_network.node[27].core_layer 	slots_sent[face$o[2]->node[4]] 	0
scalar barabasi_100nodes_network.node[27].core_layer 	slots_sent[face$o[3]->node[99]] 	4241500
scalar barabasi_100nodes_network.node[27].content_store 	p_hit[27] 	0.46296795528477
scalar barabasi_100nodes_network.node[27].content_store 	hits[27] 	103040
scalar barabasi_100nodes_network.node[27].content_store 	misses[27] 	119524
scalar barabasi_100nodes_network.node[27].content_store 	decision_yes[27] 	54064
scalar barabasi_100nodes_network.node[27].content_store 	decision_no[27] 	65460
scalar barabasi_100nodes_network.node[27].content_store 	decision_ratio[27] 	0.45232756601185
scalar barabasi_100nodes_network.node[28].core_layer 	interests[28] 	856303
scalar barabasi_100nodes_network.node[28].core_layer 	repo_load[28] 	722816
scalar barabasi_100nodes_network.node[28].core_layer 	data[28] 	30093
scalar barabasi_100nodes_network.node[28].core_layer 	slots_sent[face$o[1]->client[28]] 	18026600
scalar barabasi_100nodes_network.node[28].core_layer 	slots_sent[face$o[2]->node[0]] 	67603700
scalar barabasi_100nodes_network.node[28].content_store 	p_hit[28] 	0.12074464295933
scalar barabasi_100nodes_network.node[28].content_store 	hits[28] 	103394
scalar barabasi_100nodes_network.node[28].content_store 	misses[28] 	752909
scalar barabasi_100nodes_network.node[28].content_store 	decision_yes[28] 	30093
scalar barabasi_100nodes_network.node[28].content_store 	decision_no[28] 	722816
scalar barabasi_100nodes_network.node[28].content_store 	decision_ratio[28] 	0.039968973674109
scalar barabasi_100nodes_network.node[29].core_layer 	interests[29] 	179327
scalar barabasi_100nodes_network.node[29].core_layer 	data[29] 	41779
scalar barabasi_100nodes_network.node[29].core_layer 	slots_sent[face$o[1]->client[29]] 	17932700
scalar barabasi_100nodes_network.node[29].core_layer 	slots_sent[face$o[2]->node[2]] 	0
scalar barabasi_100nodes_network.node[29].content_store 	p_hit[29] 	0.76702337071384
scalar barabasi_100nodes_network.node[29].content_store 	hits[29] 	137548
scalar barabasi_100nodes_network.node[29].content_store 	misses[29] 	41779
scalar barabasi_100nodes_network.node[29].content_store 	decision_yes[29] 	41779
scalar barabasi_100nodes_network.node[29].content_store 	decision_no[29] 	0
scalar barabasi_100nodes_network.node[29].content_store 	decision_ratio[29] 	1
scalar barabasi_100nodes_network.node[30].core_layer 	interests[30] 	222748
scalar barabasi_100nodes_network.node[30].core_layer 	data[30] 	79139
scalar barabasi_100nodes_network.node[30].core_layer 	slots_sent[face$o[1]->client[30]] 	18045700
scalar barabasi_100nodes_network.node[30].core_layer 	slots_sent[face$o[2]->node[4]] 	0
scalar barabasi_100nodes_network.node[30].core_layer 	slots_sent[face$o[3]->node[88]] 	4229100
scalar barabasi_100nodes_network.node[30].content_store 	p_hit[30] 	0.64471510406379
scalar barabasi_100nodes_network.node[30].content_store 	hits[30] 	143609
scalar barabasi_100nodes_network.node[30].content_store 	misses[30] 	79139
scalar barabasi_100nodes_network.node[30].content_store 	decision_yes[30] 	79139
scalar barabasi_100nodes_network.node[30].content_store 	decision_no[30] 	0
scalar barabasi_100nodes_network.node[30].content_store 	decision_ratio[30] 	1
scalar barabasi_100nodes_network.node[31].core_layer 	interests[31] 	293548
scalar barabasi_100nodes_network.node[31].core_layer 	data[31] 	147377
scalar barabasi_100nodes_network.node[31].core_layer 	slots_sent[face$o[1]->client[31]] 	18009300
scalar barabasi_100nodes_network.node[31].core_layer 	slots_sent[face$o[2]->node[7]] 	0
scalar barabasi_100nodes_network.node[31].core_layer 	slots_sent[face$o[3]->node[65]] 	11345500
scalar barabasi_100nodes_network.node[31].content_store 	p_hit[31] 	0.49794582146702
scalar barabasi_100nodes_network.node[31].content_store 	hits[31] 	146171
scalar barabasi_100nodes_network.node[31].content_store 	misses[31] 	147377
scalar barabasi_100nodes_network.node[31].content_store 	decision_yes[31] 	147377
scalar barabasi_100nodes_network.node[31].content_store 	decision_no[31] 	0
scalar barabasi_100nodes_network.node[31].content_store 	decision_ratio[31] 	1
scalar barabasi_100nodes_network.node[32].core_layer 	interests[32] 	869344
scalar barabasi_100nodes_network.node[32].core_layer 	repo_load[32] 	58404
scalar barabasi_100nodes_network.node[32].core_layer 	data[32] 	445747
scalar barabasi_100nodes_network.node[32].core_layer 	slots_sent[face$o[1]->client[32]] 	17953300
scalar barabasi_100nodes_network.node[32].core_layer 	slots_sent[face$o[2]->node[2]] 	61711000
scalar barabasi_100nodes_network.node[32].core_layer 	slots_sent[face$o[3]->node[43]] 	4248700
scalar barabasi_100nodes_network.node[32].core_layer 	slots_sent[face$o[4]->node[64]] 	3021400
scalar barabasi_100nodes_network.node[32].content_store 	p_hit[32] 	0.42007881805131
scalar barabasi_100nodes_network.node[32].content_store 	hits[32] 	365193
scalar barabasi_100nodes_network.node[32].content_store 	misses[32] 	504151
scalar barabasi_100nodes_network.node[32].content_store 	decision_yes[32] 	445747
scalar barabasi_100nodes_network.node[32].content_store 	decision_no[32] 	58404
scalar barabasi_100nodes_network.node[32].content_store 	decision_ratio[32] 	0.88415375552166
scalar barabasi_100nodes_network.node[33].core_layer 	interests[33] 	180417
scalar barabasi_100nodes_network.node[33].core_layer 	data[33] 	42512
scalar barabasi_100nodes_network.node[33].core_layer 	slots_sent[face$o[1]->client[33]] 	18041700
scalar barabasi_100nodes_network.node[33].core_layer 	slots_sent[face$o[2]->node[2]] 	0
scalar barabasi_100nodes_network.node[33].content_store 	p_hit[33] 	0.76436810278411
scalar barabasi_100nodes_network.node[33].content_store 	hits[33] 	137905
scalar barabasi_100nodes_network.node[33].content_store 	misses[33] 	42512
scalar barabasi_100nodes_network.node[33].content_store 	decision_yes[33] 	42512
scalar barabasi_100nodes_network.node[33].content_store 	decision_no[33] 	0
scalar barabasi_100nodes_network.node[33].content_store 	decision_ratio[33] 	1
scalar barabasi_100nodes_network.node[34].core_layer 	interests[34] 	179960
scalar barabasi_100nodes_network.node[34].core_layer 	data[34] 	42259
scalar barabasi_100nodes_network.node[34].core_layer 	slots_sent[face$o[1]->client[34]] 	17996000
scalar barabasi_100nodes_network.node[34].core_layer 	slots_sent[face$o[2]->node[2]] 	0
scalar barabasi_100nodes_network.node[34].content_store 	p_hit[34] 	0.76517559457657
scalar barabasi_100nodes_network.node[34].content_store 	hits[34] 	137701
scalar barabasi_100nodes_network.node[34].content_store 	misses[34] 	42259
scalar barabasi_100nodes_network.node[34].content_store 	decision_yes[34] 	42259
scalar barabasi_100nodes_network.node[34].content_store 	decision_no[34] 	0
scalar barabasi_100nodes_network.node[34].content_store 	decision_ratio[34] 	1
scalar barabasi_100nodes_network.node[35].core_layer 	interests[35] 	222963
scalar barabasi_100nodes_network.node[35].core_layer 	data[35] 	79791
scalar barabasi_100nodes_network.node[35].core_layer 	slots_sent[face$o[1]->client[35]] 	18045600
scalar barabasi_100nodes_network.node[35].core_layer 	slots_sent[face$o[2]->node[5]] 	0
scalar barabasi_100nodes_network.node[35].core_layer 	slots_sent[face$o[3]->node[50]] 	4250700
scalar barabasi_100nodes_network.node[35].content_store 	p_hit[35] 	0.64213344815059
scalar barabasi_100nodes_network.node[35].content_store 	hits[35] 	143172
scalar barabasi_100nodes_network.node[35].content_store 	misses[35] 	79791
scalar barabasi_100nodes_network.node[35].content_store 	decision_yes[35] 	79791
scalar barabasi_100nodes_network.node[35].content_store 	decision_no[35] 	0
scalar barabasi_100nodes_network.node[35].content_store 	decision_ratio[35] 	1
scalar barabasi_100nodes_network.node[36].core_layer 	interests[36] 	222307
scalar barabasi_100nodes_network.node[36].core_layer 	data[36] 	79121
scalar barabasi_100nodes_network.node[36].core_layer 	slots_sent[face$o[1]->client[36]] 	17968500
scalar barabasi_100nodes_network.node[36].core_layer 	slots_sent[face$o[2]->node[2]] 	0
scalar barabasi_100nodes_network.node[36].core_layer 	slots_sent[face$o[3]->node[75]] 	4262200
scalar barabasi_100nodes_network.node[36].content_store 	p_hit[36] 	0.64409127917699
scalar barabasi_100nodes_network.node[36].content_store 	hits[36] 	143186
scalar barabasi_100nodes_network.node[36].content_store 	misses[36] 	79121
scalar barabasi_100nodes_network.node[36].content_store 	decision_yes[36] 	79121
scalar barabasi_100nodes_network.node[36].content_store 	decision_no[36] 	0
scalar barabasi_100nodes_network.node[36].content_store 	decision_ratio[36] 	1
scalar barabasi_100nodes_network.node[37].core_layer 	interests[37] 	180445
scalar barabasi_100nodes_network.node[37].core_layer 	data[37] 	42493
scalar barabasi_100nodes_network.node[37].core_layer 	slots_sent[face$o[1]->client[37]] 	18044500
scalar barabasi_100nodes_network.node[37].core_layer 	slots_sent[face$o[2]->node[0]] 	0
scalar barabasi_100nodes_network.node[37].content_store 	p_hit[37] 	0.76450996148411
scalar barabasi_100nodes_network.node[37].content_store 	hits[37] 	137952
scalar barabasi_100nodes_network.node[37].content_store 	misses[37] 	42493
scalar barabasi_100nodes_network.node[37].content_store 	decision_yes[37] 	42493
scalar barabasi_100nodes_network.node[37].content_store 	decision_no[37] 	0
scalar barabasi_100nodes_network.node[37].content_store 	decision_ratio[37] 	1
scalar barabasi_100nodes_network.node[38].core_layer 	interests[38] 	180054
scalar barabasi_100nodes_network.node[38].core_layer 	data[38] 	42340
scalar barabasi_100nodes_network.node[38].core_layer 	slots_sent[face$o[1]->client[38]] 	18005400
scalar barabasi_100nodes_network.node[38].core_layer 	slots_sent[face$o[2]->node[25]] 	0
scalar barabasi_100nodes_network.node[38].content_store 	p_hit[38] 	0.76484832328079
scalar barabasi_100nodes_network.node[38].content_store 	hits[38] 	137714
scalar barabasi_100nodes_network.node[38].content_store 	misses[38] 	42340
scalar barabasi_100nodes_network.node[38].content_store 	decision_yes[38] 	42340
scalar barabasi_100nodes_network.node[38].content_store 	decision_no[38] 	0
scalar barabasi_100nodes_network.node[38].content_store 	decision_ratio[38] 	1
scalar barabasi_100nodes_network.node[39].core_layer 	interests[39] 	222760
scalar barabasi_100nodes_network.node[39].core_layer 	data[39] 	78839
scalar barabasi_100nodes_network.node[39].core_layer 	slots_sent[face$o[1]->client[39]] 	18061000
scalar barabasi_100nodes_network.node[39].core_layer 	slots_sent[face$o[2]->node[8]] 	0
scalar barabasi_100nodes_network.node[39].core_layer 	slots_sent[face$o[3]->node[60]] 	4215000
scalar barabasi_100nodes_network.node[39].content_store 	p_hit[39] 	0.64608098401867
scalar barabasi_100nodes_network.node[39].content_store 	hits[39] 	143921
scalar barabasi_100nodes_network.node[39].content_store 	misses[39] 	78839
scalar barabasi_100nodes_network.node[39].content_store 	decision_yes[39] 	78839
scalar barabasi_100nodes_network.node[39].content_store 	decision_no[39] 	0
scalar barabasi_100nodes_network.node[39].content_store 	decision_ratio[39] 	1
scalar barabasi_100nodes_network.node[40].core_layer 	interests[40] 	180258
scalar barabasi_100nodes_network.node[40].core_layer 	data[40] 	41823
scalar barabasi_100nodes_network.node[40].core_layer 	slots_sent[face$o[1]->client[40]] 	18025800
scalar barabasi_100nodes_network.node[40].core_layer 	slots_sent[face$o[2]->node[15]] 	0
scalar barabasi_100nodes_network.node[40].content_store 	p_hit[40] 	0.76798255833306
scalar barabasi_100nodes_network.node[40].content_store 	hits[40] 	138435
scalar barabasi_100nodes_network.node[40].content_store 	misses[40] 	41823
scalar barabasi_100nodes_network.node[40].content_store 	decision_yes[40] 	41823
scalar barabasi_100nodes_network.node[40].content_store 	decision_no[40] 	0
scalar barabasi_100nodes_network.node[40].content_store 	decision_ratio[40] 	1
scalar barabasi_100nodes_network.node[41].core_layer 	interests[41] 	427983
scalar barabasi_100nodes_network.node[41].core_layer 	repo_load[41] 	101970
scalar barabasi_100nodes_network.node[41].core_layer 	data[41] 	169208
scalar barabasi_100nodes_network.node[41].core_layer 	slots_sent[face$o[1]->client[41]] 	17985300
scalar barabasi_100nodes_network.node[41].core_layer 	slots_sent[face$o[2]->node[2]] 	0
scalar barabasi_100nodes_network.node[41].core_layer 	slots_sent[face$o[3]->node[42]] 	4229000
scalar barabasi_100nodes_network.node[41].core_layer 	slots_sent[face$o[4]->node[48]] 	4226100
scalar barabasi_100nodes_network.node[41].core_layer 	slots_sent[face$o[5]->node[54]] 	7905500
scalar barabasi_100nodes_network.node[41].core_layer 	slots_sent[face$o[6]->node[55]] 	4207600
scalar barabasi_100nodes_network.node[41].core_layer 	slots_sent[face$o[7]->node[69]] 	4244800
scalar barabasi_100nodes_network.node[41].content_store 	p_hit[41] 	0.36638137496116
scalar barabasi_100nodes_network.node[41].content_store 	hits[41] 	156805
scalar barabasi_100nodes_network.node[41].content_store 	misses[41] 	271178
scalar barabasi_100nodes_network.node[41].content_store 	decision_yes[41] 	169208
scalar barabasi_100nodes_network.node[41].content_store 	decision_no[41] 	101970
scalar barabasi_100nodes_network.node[41].content_store 	decision_ratio[41] 	0.6239739211883
scalar barabasi_100nodes_network.node[42].core_layer 	interests[42] 	179752
scalar barabasi_100nodes_network.node[42].core_layer 	data[42] 	42290
scalar barabasi_100nodes_network.node[42].core_layer 	slots_sent[face$o[1]->client[42]] 	17975200
scalar barabasi_100nodes_network.node[42].core_layer 	slots_sent[face$o[2]->node[41]] 	0
scalar barabasi_100nodes_network.node[42].content_store 	p_hit[42] 	0.7647314077173
scalar barabasi_100nodes_network.node[42].content_store 	hits[42] 	137462
scalar barabasi_100nodes_network.node[42].content_store 	misses[42] 	42290
scalar barabasi_100nodes_network.node[42].content_store 	decision_yes[42] 	42290
scalar barabasi_100nodes_network.node[42].content_store 	decision_no[42] 	0
scalar barabasi_100nodes_network.node[42].content_store 	decision_ratio[42] 	1
scalar barabasi_100nodes_network.node[43].core_layer 	interests[43] 	180440
scalar barabasi_100nodes_network.node[43].core_layer 	data[43] 	42487
scalar barabasi_100nodes_network.node[43].core_layer 	slots_sent[face$o[1]->client[43]] 	18044000
scalar barabasi_100nodes_network.node[43].core_layer 	slots_sent[face$o[2]->node[32]] 	0
scalar barabasi_100nodes_network.node[43].content_store 	p_hit[43] 	0.76453668809577
scalar barabasi_100nodes_network.node[43].content_store 	hits[43] 	137953
scalar barabasi_100nodes_network.node[43].content_store 	misses[43] 	42487
scalar barabasi_100nodes_network.node[43].content_store 	decision_yes[43] 	42487
scalar barabasi_100nodes_network.node[43].content_store 	decision_no[43] 	0
scalar barabasi_100nodes_network.node[43].content_store 	decision_ratio[43] 	1
scalar barabasi_100nodes_network.node[44].core_layer 	interests[44] 	179676
scalar barabasi_100nodes_network.node[44].core_layer 	data[44] 	41611
scalar barabasi_100nodes_network.node[44].core_layer 	slots_sent[face$o[1]->client[44]] 	17967600
scalar barabasi_100nodes_network.node[44].core_layer 	slots_sent[face$o[2]->node[0]] 	0
scalar barabasi_100nodes_network.node[44].content_store 	p_hit[44] 	0.76841091742915
scalar barabasi_100nodes_network.node[44].content_store 	hits[44] 	138065
scalar barabasi_100nodes_network.node[44].content_store 	misses[44] 	41611
scalar barabasi_100nodes_network.node[44].content_store 	decision_yes[44] 	41611
scalar barabasi_100nodes_network.node[44].content_store 	decision_no[44] 	0
scalar barabasi_100nodes_network.node[44].content_store 	decision_ratio[44] 	1
scalar barabasi_100nodes_network.node[45].core_layer 	interests[45] 	180112
scalar barabasi_100nodes_network.node[45].core_layer 	data[45] 	42541
scalar barabasi_100nodes_network.node[45].core_layer 	slots_sent[face$o[1]->client[45]] 	18011200
scalar barabasi_100nodes_network.node[45].core_layer 	slots_sent[face$o[2]->node[2]] 	0
scalar barabasi_100nodes_network.node[45].content_store 	p_hit[45] 	0.76380807497557
scalar barabasi_100nodes_network.node[45].content_store 	hits[45] 	137571
scalar barabasi_100nodes_network.node[45].content_store 	misses[45] 	42541
scalar barabasi_100nodes_network.node[45].content_store 	decision_yes[45] 	42541
scalar barabasi_100nodes_network.node[45].content_store 	decision_no[45] 	0
scalar barabasi_100nodes_network.node[45].content_store 	decision_ratio[45] 	1
scalar barabasi_100nodes_network.node[46].core_layer 	interests[46] 	222689
scalar barabasi_100nodes_network.node[46].core_layer 	data[46] 	79512
scalar barabasi_100nodes_network.node[46].core_layer 	slots_sent[face$o[1]->client[46]] 	17983700
scalar barabasi_100nodes_network.node[46].core_layer 	slots_sent[face$o[2]->node[23]] 	0
scalar barabasi_100nodes_network.node[46].core_layer 	slots_sent[face$o[3]->node[82]] 	4285200
scalar barabasi_100nodes_network.node[46].content_store 	p_hit[46] 	0.64294599194392
scalar barabasi_100nodes_network.node[46].content_store 	hits[46] 	143177
scalar barabasi_100nodes_network.node[46].content_store 	misses[46] 	79512
scalar barabasi_100nodes_network.node[46].content_store 	decision_yes[46] 	79512
scalar barabasi_100nodes_network.node[46].content_store 	decision_no[46] 	0
scalar barabasi_100nodes_network.node[46].content_store 	decision_ratio[46] 	1
scalar barabasi_100nodes_network.node[47].core_layer 	interests[47] 	180518
scalar barabasi_100nodes_network.node[47].core_layer 	repo_load[47] 	40357
scalar barabasi_100nodes_network.node[47].core_layer 	data[47] 	30181
scalar barabasi_100nodes_network.node[47].core_layer 	slots_sent[face$o[1]->client[47]] 	18051800
scalar barabasi_100nodes_network.node[47].core_layer 	slots_sent[face$o[2]->node[23]] 	0
scalar barabasi_100nodes_network.node[47].content_store 	p_hit[47] 	0.60924672331845
scalar barabasi_100nodes_network.node[47].content_store 	hits[47] 	109980
scalar barabasi_100nodes_network.node[47].content_store 	misses[47] 	70538
scalar barabasi_100nodes_network.node[47].content_store 	decision_yes[47] 	30181
scalar barabasi_100nodes_network.node[47].content_store 	decision_no[47] 	40357
scalar barabasi_100nodes_network.node[47].content_store 	decision_ratio[47] 	0.42786866653435
scalar barabasi_100nodes_network.node[48].core_layer 	interests[48] 	180083
scalar barabasi_100nodes_network.node[48].core_layer 	data[48] 	42261
scalar barabasi_100nodes_network.node[48].core_layer 	slots_sent[face$o[1]->client[48]] 	18008300
scalar barabasi_100nodes_network.node[48].core_layer 	slots_sent[face$o[2]->node[41]] 	0
scalar barabasi_100nodes_network.node[48].content_store 	p_hit[48] 	0.76532487797293
scalar barabasi_100nodes_network.node[48].content_store 	hits[48] 	137822
scalar barabasi_100nodes_network.node[48].content_store 	misses[48] 	42261
scalar barabasi_100nodes_network.node[48].content_store 	decision_yes[48] 	42261
scalar barabasi_100nodes_network.node[48].content_store 	decision_no[48] 	0
scalar barabasi_100nodes_network.node[48].content_store 	decision_ratio[48] 	1
scalar barabasi_100nodes_network.node[49].core_layer 	interests[49] 	180244
scalar barabasi_100nodes_network.node[49].core_layer 	data[49] 	42304
scalar barabasi_100nodes_network.node[49].core_layer 	slots_sent[face$o[1]->client[49]] 	18024400
scalar barabasi_100nodes_network.node[49].core_layer 	slots_sent[face$o[2]->node[7]] 	0
scalar barabasi_100nodes_network.node[49].content_store 	p_hit[49] 	0.76529593218082
scalar barabasi_100nodes_network.node[49].content_store 	hits[49] 	137940
scalar barabasi_100nodes_network.node[49].content_store 	misses[49] 	42304
scalar barabasi_100nodes_network.node[49].content_store 	decision_yes[49] 	42304
scalar barabasi_100nodes_network.node[49].content_store 	decision_no[49] 	0
scalar barabasi_100nodes_network.node[49].content_store 	decision_ratio[49] 	1
scalar barabasi_100nodes_network.node[50].core_layer 	interests[50] 	180834
scalar barabasi_100nodes_network.node[50].core_layer 	data[50] 	42507
scalar barabasi_100nodes_network.node[50].core_layer 	slots_sent[face$o[1]->client[50]] 	18083400
scalar barabasi_100nodes_network.node[50].core_layer 	slots_sent[face$o[2]->node[35]] 	0
scalar barabasi_100nodes_network.node[50].content_store 	p_hit[50] 	0.76493911543183
scalar barabasi_100nodes_network.node[50].content_store 	hits[50] 	138327
[...]
scalar barabasi_100nodes_network.client[9] 	hdistance[9].real 	0.80620094585035
scalar barabasi_100nodes_network.client[9] 	downloads[9].real 	179521
scalar barabasi_100nodes_network.client[9] 	avg_time[9].real 	0
scalar barabasi_100nodes_network.client[10] 	hdistance[10].real 	0.68023158900729
scalar barabasi_100nodes_network.client[10] 	downloads[10].real 	179974
scalar barabasi_100nodes_network.client[10] 	avg_time[10].real 	0
scalar barabasi_100nodes_network.client[11] 	hdistance[11].real 	0.65709481021862
scalar barabasi_100nodes_network.client[11] 	downloads[11].real 	180181
scalar barabasi_100nodes_network.client[11] 	avg_time[11].real 	0
scalar barabasi_100nodes_network.client[12] 	hdistance[12].real 	0.83583525147057
scalar barabasi_100nodes_network.client[12] 	downloads[12].real 	179862
scalar barabasi_100nodes_network.client[12] 	avg_time[12].real 	0
scalar barabasi_100nodes_network.client[13] 	hdistance[13].real 	0.82363753484601
scalar barabasi_100nodes_network.client[13] 	downloads[13].real 	180078
scalar barabasi_100nodes_network.client[13] 	avg_time[13].real 	0
scalar barabasi_100nodes_network.client[14] 	hdistance[14].real 	0.83958394782096
scalar barabasi_100nodes_network.client[14] 	downloads[14].real 	179689
scalar barabasi_100nodes_network.client[14] 	avg_time[14].real 	0
scalar barabasi_100nodes_network.client[15] 	hdistance[15].real 	0.79167291115071
scalar barabasi_100nodes_network.client[15] 	downloads[15].real 	180159
scalar barabasi_100nodes_network.client[15] 	avg_time[15].real 	0
scalar barabasi_100nodes_network.client[16] 	hdistance[16].real 	0.85759968963892
scalar barabasi_100nodes_network.client[16] 	downloads[16].real 	180435
scalar barabasi_100nodes_network.client[16] 	avg_time[16].real 	0
scalar barabasi_100nodes_network.client[17] 	hdistance[17].real 	0.8396685862159
scalar barabasi_100nodes_network.client[17] 	downloads[17].real 	180077
scalar barabasi_100nodes_network.client[17] 	avg_time[17].real 	0
scalar barabasi_100nodes_network.client[18] 	hdistance[18].real 	0.79755059285012
scalar barabasi_100nodes_network.client[18] 	downloads[18].real 	179472
scalar barabasi_100nodes_network.client[18] 	avg_time[18].real 	0
scalar barabasi_100nodes_network.client[19] 	hdistance[19].real 	0.98463742780642
scalar barabasi_100nodes_network.client[19] 	downloads[19].real 	180764
scalar barabasi_100nodes_network.client[19] 	avg_time[19].real 	0
scalar barabasi_100nodes_network.client[20] 	hdistance[20].real 	0.83953029999332
scalar barabasi_100nodes_network.client[20] 	downloads[20].real 	179604
scalar barabasi_100nodes_network.client[20] 	avg_time[20].real 	0
scalar barabasi_100nodes_network.client[21] 	hdistance[21].real 	0.70393857734622
scalar barabasi_100nodes_network.client[21] 	downloads[21].real 	179608
scalar barabasi_100nodes_network.client[21] 	avg_time[21].real 	0
scalar barabasi_100nodes_network.client[22] 	hdistance[22].real 	0.73127989030467
scalar barabasi_100nodes_network.client[22] 	downloads[22].real 	179406
scalar barabasi_100nodes_network.client[22] 	avg_time[22].real 	0
scalar barabasi_100nodes_network.client[23] 	hdistance[23].real 	0.98127776485316
scalar barabasi_100nodes_network.client[23] 	downloads[23].real 	180534
scalar barabasi_100nodes_network.client[23] 	avg_time[23].real 	0
scalar barabasi_100nodes_network.client[24] 	hdistance[24].real 	0.80917545084738
scalar barabasi_100nodes_network.client[24] 	downloads[24].real 	180438
scalar barabasi_100nodes_network.client[24] 	avg_time[24].real 	0
scalar barabasi_100nodes_network.client[25] 	hdistance[25].real 	0.76810133870736
scalar barabasi_100nodes_network.client[25] 	downloads[25].real 	180622
scalar barabasi_100nodes_network.client[25] 	avg_time[25].real 	0
scalar barabasi_100nodes_network.client[26] 	hdistance[26].real 	0.84542623524122
scalar barabasi_100nodes_network.client[26] 	downloads[26].real 	180147
scalar barabasi_100nodes_network.client[26] 	avg_time[26].real 	0
scalar barabasi_100nodes_network.client[27] 	hdistance[27].real 	0.89177847226463
scalar barabasi_100nodes_network.client[27] 	downloads[27].real 	180149
scalar barabasi_100nodes_network.client[27] 	avg_time[27].real 	0
scalar barabasi_100nodes_network.client[28] 	hdistance[28].real 	0.73758223957928
scalar barabasi_100nodes_network.client[28] 	downloads[28].real 	180266
scalar barabasi_100nodes_network.client[28] 	avg_time[28].real 	0
scalar barabasi_100nodes_network.client[29] 	hdistance[29].real 	0.7347973255561
scalar barabasi_100nodes_network.client[29] 	downloads[29].real 	179327
scalar barabasi_100nodes_network.client[29] 	avg_time[29].real 	0
scalar barabasi_100nodes_network.client[30] 	hdistance[30].real 	0.88803426855151
scalar barabasi_100nodes_network.client[30] 	downloads[30].real 	180457
scalar barabasi_100nodes_network.client[30] 	avg_time[30].real 	0
scalar barabasi_100nodes_network.client[31] 	hdistance[31].real 	0.93717135035787
scalar barabasi_100nodes_network.client[31] 	downloads[31].real 	180093
scalar barabasi_100nodes_network.client[31] 	avg_time[31].real 	0
scalar barabasi_100nodes_network.client[32] 	hdistance[32].real 	0.85744682036172
scalar barabasi_100nodes_network.client[32] 	downloads[32].real 	179533
scalar barabasi_100nodes_network.client[32] 	avg_time[32].real 	0
scalar barabasi_100nodes_network.client[33] 	hdistance[33].real 	0.74584434947925
scalar barabasi_100nodes_network.client[33] 	downloads[33].real 	180417
scalar barabasi_100nodes_network.client[33] 	avg_time[33].real 	0
scalar barabasi_100nodes_network.client[34] 	hdistance[34].real 	0.74177595021116
scalar barabasi_100nodes_network.client[34] 	downloads[34].real 	179960
scalar barabasi_100nodes_network.client[34] 	avg_time[34].real 	0
scalar barabasi_100nodes_network.client[35] 	hdistance[35].real 	0.79996785920113
scalar barabasi_100nodes_network.client[35] 	downloads[35].real 	180456
scalar barabasi_100nodes_network.client[35] 	avg_time[35].real 	0
scalar barabasi_100nodes_network.client[36] 	hdistance[36].real 	0.76779363886802
scalar barabasi_100nodes_network.client[36] 	downloads[36].real 	179685
scalar barabasi_100nodes_network.client[36] 	avg_time[36].real 	0
scalar barabasi_100nodes_network.client[37] 	hdistance[37].real 	0.65765191609632
scalar barabasi_100nodes_network.client[37] 	downloads[37].real 	180445
scalar barabasi_100nodes_network.client[37] 	avg_time[37].real 	0
scalar barabasi_100nodes_network.client[38] 	hdistance[38].real 	0.8533717662479
scalar barabasi_100nodes_network.client[38] 	downloads[38].real 	180054
scalar barabasi_100nodes_network.client[38] 	avg_time[38].real 	0
scalar barabasi_100nodes_network.client[39] 	hdistance[39].real 	0.86928741487182
scalar barabasi_100nodes_network.client[39] 	downloads[39].real 	180610
scalar barabasi_100nodes_network.client[39] 	avg_time[39].real 	0
scalar barabasi_100nodes_network.client[40] 	hdistance[40].real 	0.68517347357677
scalar barabasi_100nodes_network.client[40] 	downloads[40].real 	180258
scalar barabasi_100nodes_network.client[40] 	avg_time[40].real 	0
scalar barabasi_100nodes_network.client[41] 	hdistance[41].real 	0.83063946667556
scalar barabasi_100nodes_network.client[41] 	downloads[41].real 	179853
scalar barabasi_100nodes_network.client[41] 	avg_time[41].real 	0
scalar barabasi_100nodes_network.client[42] 	hdistance[42].real 	0.74235057189907
scalar barabasi_100nodes_network.client[42] 	downloads[42].real 	179752
scalar barabasi_100nodes_network.client[42] 	avg_time[42].real 	0
scalar barabasi_100nodes_network.client[43] 	hdistance[43].real 	0.71236976280203
scalar barabasi_100nodes_network.client[43] 	downloads[43].real 	180440
scalar barabasi_100nodes_network.client[43] 	avg_time[43].real 	0
scalar barabasi_100nodes_network.client[44] 	hdistance[44].real 	0.64790511810147
scalar barabasi_100nodes_network.client[44] 	downloads[44].real 	179676
scalar barabasi_100nodes_network.client[44] 	avg_time[44].real 	0
scalar barabasi_100nodes_network.client[45] 	hdistance[45].real 	0.74382606378253
scalar barabasi_100nodes_network.client[45] 	downloads[45].real 	180112
scalar barabasi_100nodes_network.client[45] 	avg_time[45].real 	0
scalar barabasi_100nodes_network.client[46] 	hdistance[46].real 	1.0031361733125
scalar barabasi_100nodes_network.client[46] 	downloads[46].real 	179837
scalar barabasi_100nodes_network.client[46] 	avg_time[46].real 	0
scalar barabasi_100nodes_network.client[47] 	hdistance[47].real 	0.90855759536445
scalar barabasi_100nodes_network.client[47] 	downloads[47].real 	180518
scalar barabasi_100nodes_network.client[47] 	avg_time[47].real 	0
scalar barabasi_100nodes_network.client[48] 	hdistance[48].real 	0.73702126241789
scalar barabasi_100nodes_network.client[48] 	downloads[48].real 	180083
scalar barabasi_100nodes_network.client[48] 	avg_time[48].real 	0
scalar barabasi_100nodes_network.client[49] 	hdistance[49].real 	0.85024744235592
scalar barabasi_100nodes_network.client[49] 	downloads[49].real 	180244
scalar barabasi_100nodes_network.client[49] 	avg_time[49].real 	0
scalar barabasi_100nodes_network.client[50] 	hdistance[50].real 	0.88548060652311
scalar barabasi_100nodes_network.client[50] 	downloads[50].real 	180834
scalar barabasi_100nodes_network.client[50] 	avg_time[50].real 	0
scalar barabasi_100nodes_network.client[51] 	hdistance[51].real 	0.97016754757164
scalar barabasi_100nodes_network.client[51] 	downloads[51].real 	180307
scalar barabasi_100nodes_network.client[51] 	avg_time[51].real 	0
scalar barabasi_100nodes_network.client[52] 	hdistance[52].real 	0.85731334627139
scalar barabasi_100nodes_network.client[52] 	downloads[52].real 	179316
scalar barabasi_100nodes_network.client[52] 	avg_time[52].real 	0
scalar barabasi_100nodes_network.client[53] 	hdistance[53].real 	0.74197707895644
scalar barabasi_100nodes_network.client[53] 	downloads[53].real 	179922
scalar barabasi_100nodes_network.client[53] 	avg_time[53].real 	0
scalar barabasi_100nodes_network.client[54] 	hdistance[54].real 	0.77806544288363
scalar barabasi_100nodes_network.client[54] 	downloads[54].real 	179607
scalar barabasi_100nodes_network.client[54] 	avg_time[54].real 	0
scalar barabasi_100nodes_network.client[55] 	hdistance[55].real 	0.73067827284133
scalar barabasi_100nodes_network.client[55] 	downloads[55].real 	180134
scalar barabasi_100nodes_network.client[55] 	avg_time[55].real 	0
scalar barabasi_100nodes_network.client[56] 	hdistance[56].real 	0.67807766807085
scalar barabasi_100nodes_network.client[56] 	downloads[56].real 	180177
scalar barabasi_100nodes_network.client[56] 	avg_time[56].real 	0
scalar barabasi_100nodes_network.client[57] 	hdistance[57].real 	0.75405399409924
scalar barabasi_100nodes_network.client[57] 	downloads[57].real 	180316
scalar barabasi_100nodes_network.client[57] 	avg_time[57].real 	0
scalar barabasi_100nodes_network.client[58] 	hdistance[58].real 	0.68601956174592
scalar barabasi_100nodes_network.client[58] 	downloads[58].real 	180352
scalar barabasi_100nodes_network.client[58] 	avg_time[58].real 	0
scalar barabasi_100nodes_network.client[59] 	hdistance[59].real 	0.74098942096957
scalar barabasi_100nodes_network.client[59] 	downloads[59].real 	179317
scalar barabasi_100nodes_network.client[59] 	avg_time[59].real 	0
scalar barabasi_100nodes_network.client[60] 	hdistance[60].real 	0.95600182007857
scalar barabasi_100nodes_network.client[60] 	downloads[60].real 	180212
scalar barabasi_100nodes_network.client[60] 	avg_time[60].real 	0
scalar barabasi_100nodes_network.client[61] 	hdistance[61].real 	0.8408390633557
scalar barabasi_100nodes_network.client[61] 	downloads[61].real 	180773
scalar barabasi_100nodes_network.client[61] 	avg_time[61].real 	0
scalar barabasi_100nodes_network.client[62] 	hdistance[62].real 	0.80259876987866
scalar barabasi_100nodes_network.client[62] 	downloads[62].real 	180470
scalar barabasi_100nodes_network.client[62] 	avg_time[62].real 	0
scalar barabasi_100nodes_network.client[63] 	hdistance[63].real 	0.98602863350231
scalar barabasi_100nodes_network.client[63] 	downloads[63].real 	179510
scalar barabasi_100nodes_network.client[63] 	avg_time[63].real 	0
scalar barabasi_100nodes_network.client[64] 	hdistance[64].real 	0.7738161744777
scalar barabasi_100nodes_network.client[64] 	downloads[64].real 	180791
scalar barabasi_100nodes_network.client[64] 	avg_time[64].real 	0
scalar barabasi_100nodes_network.client[65] 	hdistance[65].real 	1.0640290127125
scalar barabasi_100nodes_network.client[65] 	downloads[65].real 	180059
scalar barabasi_100nodes_network.client[65] 	avg_time[65].real 	0
scalar barabasi_100nodes_network.client[66] 	hdistance[66].real 	0.83669011971056
scalar barabasi_100nodes_network.client[66] 	downloads[66].real 	179934
scalar barabasi_100nodes_network.client[66] 	avg_time[66].real 	0
scalar barabasi_100nodes_network.client[67] 	hdistance[67].real 	0.83682837128821
scalar barabasi_100nodes_network.client[67] 	downloads[67].real 	179731
scalar barabasi_100nodes_network.client[67] 	avg_time[67].real 	0
scalar barabasi_100nodes_network.client[68] 	hdistance[68].real 	0.74437420285034
scalar barabasi_100nodes_network.client[68] 	downloads[68].real 	180330
scalar barabasi_100nodes_network.client[68] 	avg_time[68].real 	0
scalar barabasi_100nodes_network.client[69] 	hdistance[69].real 	0.7406998117472
scalar barabasi_100nodes_network.client[69] 	downloads[69].real 	180077
scalar barabasi_100nodes_network.client[69] 	avg_time[69].real 	0
scalar barabasi_100nodes_network.client[70] 	hdistance[70].real 	0.98033262715399
scalar barabasi_100nodes_network.client[70] 	downloads[70].real 	179841
scalar barabasi_100nodes_network.client[70] 	avg_time[70].real 	0
scalar barabasi_100nodes_network.client[71] 	hdistance[71].real 	0.78782310425089
scalar barabasi_100nodes_network.client[71] 	downloads[71].real 	179586
scalar barabasi_100nodes_network.client[71] 	avg_time[71].real 	0
scalar barabasi_100nodes_network.client[72] 	hdistance[72].real 	0.74383437247368
scalar barabasi_100nodes_network.client[72] 	downloads[72].real 	180598
scalar barabasi_100nodes_network.client[72] 	avg_time[72].real 	0
scalar barabasi_100nodes_network.client[73] 	hdistance[73].real 	0.68680265475939
scalar barabasi_100nodes_network.client[73] 	downloads[73].real 	180506
scalar barabasi_100nodes_network.client[73] 	avg_time[73].real 	0
scalar barabasi_100nodes_network.client[74] 	hdistance[74].real 	0.65893956980767
scalar barabasi_100nodes_network.client[74] 	downloads[74].real 	180059
scalar barabasi_100nodes_network.client[74] 	avg_time[74].real 	0
scalar barabasi_100nodes_network.client[75] 	hdistance[75].real 	0.86241666574227
scalar barabasi_100nodes_network.client[75] 	downloads[75].real 	180298
scalar barabasi_100nodes_network.client[75] 	avg_time[75].real 	0
scalar barabasi_100nodes_network.client[76] 	hdistance[76].real 	0.78665512130951
scalar barabasi_100nodes_network.client[76] 	downloads[76].real 	180159
scalar barabasi_100nodes_network.client[76] 	avg_time[76].real 	0
scalar barabasi_100nodes_network.client[77] 	hdistance[77].real 	0.76061115830266
scalar barabasi_100nodes_network.client[77] 	downloads[77].real 	180117
scalar barabasi_100nodes_network.client[77] 	avg_time[77].real 	0
scalar barabasi_100nodes_network.client[78] 	hdistance[78].real 	0.92263575283009
scalar barabasi_100nodes_network.client[78] 	downloads[78].real 	179941
scalar barabasi_100nodes_network.client[78] 	avg_time[78].real 	0
scalar barabasi_100nodes_network.client[79] 	hdistance[79].real 	0.73694618495312
scalar barabasi_100nodes_network.client[79] 	downloads[79].real 	180024
scalar barabasi_100nodes_network.client[79] 	avg_time[79].real 	0
scalar barabasi_100nodes_network.client[80] 	hdistance[80].real 	0.983268268574
scalar barabasi_100nodes_network.client[80] 	downloads[80].real 	180077
scalar barabasi_100nodes_network.client[80] 	avg_time[80].real 	0
scalar barabasi_100nodes_network.client[81] 	hdistance[81].real 	0.95961023711874
scalar barabasi_100nodes_network.client[81] 	downloads[81].real 	179699
scalar barabasi_100nodes_network.client[81] 	avg_time[81].real 	0
scalar barabasi_100nodes_network.client[82] 	hdistance[82].real 	1.0870814295895
scalar barabasi_100nodes_network.client[82] 	downloads[82].real 	181003
scalar barabasi_100nodes_network.client[82] 	avg_time[82].real 	0
scalar barabasi_100nodes_network.client[83] 	hdistance[83].real 	0.96207913629028
scalar barabasi_100nodes_network.client[83] 	downloads[83].real 	179690
scalar barabasi_100nodes_network.client[83] 	avg_time[83].real 	0
scalar barabasi_100nodes_network.client[84] 	hdistance[84].real 	0.90738632558763
scalar barabasi_100nodes_network.client[84] 	downloads[84].real 	179196
scalar barabasi_100nodes_network.client[84] 	avg_time[84].real 	0
scalar barabasi_100nodes_network.client[85] 	hdistance[85].real 	0.8390500880779
scalar barabasi_100nodes_network.client[85] 	downloads[85].real 	180522
scalar barabasi_100nodes_network.client[85] 	avg_time[85].real 	0
scalar barabasi_100nodes_network.client[86] 	hdistance[86].real 	0.97131049917183
scalar barabasi_100nodes_network.client[86] 	downloads[86].real 	180519
scalar barabasi_100nodes_network.client[86] 	avg_time[86].real 	0
scalar barabasi_100nodes_network.client[87] 	hdistance[87].real 	0.97987646275781
scalar barabasi_100nodes_network.client[87] 	downloads[87].real 	179541
scalar barabasi_100nodes_network.client[87] 	avg_time[87].real 	0
scalar barabasi_100nodes_network.client[88] 	hdistance[88].real 	0.96875868123076
scalar barabasi_100nodes_network.client[88] 	downloads[88].real 	179986
scalar barabasi_100nodes_network.client[88] 	avg_time[88].real 	0
scalar barabasi_100nodes_network.client[89] 	hdistance[89].real 	0.97987844620604
scalar barabasi_100nodes_network.client[89] 	downloads[89].real 	179509
scalar barabasi_100nodes_network.client[89] 	avg_time[89].real 	0
scalar barabasi_100nodes_network.client[90] 	hdistance[90].real 	0.84180480049806
scalar barabasi_100nodes_network.client[90] 	downloads[90].real 	179898
scalar barabasi_100nodes_network.client[90] 	avg_time[90].real 	0
scalar barabasi_100nodes_network.client[91] 	hdistance[91].real 	0.71391060087934
scalar barabasi_100nodes_network.client[91] 	downloads[91].real 	180136
scalar barabasi_100nodes_network.client[91] 	avg_time[91].real 	0
scalar barabasi_100nodes_network.client[92] 	hdistance[92].real 	1.0000444222333
scalar barabasi_100nodes_network.client[92] 	downloads[92].real 	180090
scalar barabasi_100nodes_network.client[92] 	avg_time[92].real 	0
scalar barabasi_100nodes_network.client[93] 	hdistance[93].real 	0.65593248478141
scalar barabasi_100nodes_network.client[93] 	downloads[93].real 	180700
scalar barabasi_100nodes_network.client[93] 	avg_time[93].real 	0
scalar barabasi_100nodes_network.client[94] 	hdistance[94].real 	0.7825539758647
scalar barabasi_100nodes_network.client[94] 	downloads[94].real 	179571
scalar barabasi_100nodes_network.client[94] 	avg_time[94].real 	0
scalar barabasi_100nodes_network.client[95] 	hdistance[95].real 	1.0984263790035
scalar barabasi_100nodes_network.client[95] 	downloads[95].real 	179840
scalar barabasi_100nodes_network.client[95] 	avg_time[95].real 	0
scalar barabasi_100nodes_network.client[96] 	hdistance[96].real 	0.85782462385627
scalar barabasi_100nodes_network.client[96] 	downloads[96].real 	179785
scalar barabasi_100nodes_network.client[96] 	avg_time[96].real 	0
scalar barabasi_100nodes_network.client[97] 	hdistance[97].real 	0.87044727990438
scalar barabasi_100nodes_network.client[97] 	downloads[97].real 	179865
scalar barabasi_100nodes_network.client[97] 	avg_time[97].real 	0
scalar barabasi_100nodes_network.client[98] 	hdistance[98].real 	1.0848027102877
scalar barabasi_100nodes_network.client[98] 	downloads[98].real 	178874
scalar barabasi_100nodes_network.client[98] 	avg_time[98].real 	0
scalar barabasi_100nodes_network.client[99] 	hdistance[99].real 	0.81161188698709
scalar barabasi_100nodes_network.client[99] 	downloads[99].real 	180298
scalar barabasi_100nodes_network.client[99] 	avg_time[99].real 	0
