version 2
run General-1-20150722-12:21:09-28959
attr C 116667
attr D lce
attr F spr
attr R lru
attr a 1
attr brates 1
attr configname General
attr ctlg 1e6
attr datetime 20150722-12:21:09
attr experiment General
attr inifile omnetpp.ini
attr iterationvars "$net=barabasi_100nodes, $rep=4, $lambda=100, $a=1, $ctlg=1e6, $brates=1, $F=spr, $ttl=1000, $D=lce, $R=lru, $C=116667, $window=60, $variance=0.05, $mytime=1800"
attr iterationvars2 "$net=barabasi_100nodes, $rep=4, $lambda=100, $a=1, $ctlg=1e6, $brates=1, $F=spr, $ttl=1000, $D=lce, $R=lru, $C=116667, $window=60, $variance=0.05, $mytime=1800, $repetition=0"
attr lambda 100
attr measurement "$net=barabasi_100nodes, $rep=4, $lambda=100, $a=1, $ctlg=1e6, $brates=1, $F=spr, $ttl=1000, $D=lce, $R=lru, $C=116667, $window=60, $variance=0.05, $mytime=1800"
attr mytime 1800
attr net barabasi_100nodes
attr network networks.${net=barabasi_100nodes}_network
attr processid 28959
attr rep 4
attr repetition 0
attr replication #0
attr resultdir results
attr runnumber 1
attr seedset 4
attr ttl 1000
attr variance 0.05
attr window 60

scalar . 	C 	116667
scalar . 	a 	1
scalar . 	brates 	1
scalar . 	ctlg 	1e6
scalar . 	lambda 	100
scalar . 	mytime 	1800
scalar . 	rep 	4
scalar . 	ttl 	1000
scalar . 	variance 	0.05
scalar . 	window 	60
scalar barabasi_100nodes_network.content_distribution 	repo-0 	82
scalar barabasi_100nodes_network.content_distribution 	repo-1 	48
scalar barabasi_100nodes_network.content_distribution 	repo-2 	74
scalar barabasi_100nodes_network.content_distribution 	repo-3 	16
scalar barabasi_100nodes_network.content_distribution 	repo-4 	98
scalar barabasi_100nodes_network.content_distribution 	repo-5 	25
scalar barabasi_100nodes_network.content_distribution 	repo-6 	58
scalar barabasi_100nodes_network.content_distribution 	repo-7 	99
scalar barabasi_100nodes_network.content_distribution 	repo-8 	26
scalar barabasi_100nodes_network.content_distribution 	repo-9 	66
scalar barabasi_100nodes_network.content_distribution 	repo-10 	46
scalar barabasi_100nodes_network.content_distribution 	repo-11 	54
scalar barabasi_100nodes_network.content_distribution 	repo-12 	77
scalar barabasi_100nodes_network.content_distribution 	repo-13 	73
scalar barabasi_100nodes_network.content_distribution 	repo-14 	75
scalar barabasi_100nodes_network.content_distribution 	repo-15 	52
scalar barabasi_100nodes_network.content_distribution 	repo-16 	2
scalar barabasi_100nodes_network.content_distribution 	repo-17 	32
scalar barabasi_100nodes_network.content_distribution 	repo-18 	19
scalar barabasi_100nodes_network.content_distribution 	repo-19 	21
scalar barabasi_100nodes_network.content_distribution 	repo-20 	11
scalar barabasi_100nodes_network.content_distribution 	repo-21 	86
scalar barabasi_100nodes_network.content_distribution 	repo-22 	1
scalar barabasi_100nodes_network.content_distribution 	repo-23 	18
scalar barabasi_100nodes_network.content_distribution 	repo-24 	24
scalar barabasi_100nodes_network.content_distribution 	repo-25 	28
scalar barabasi_100nodes_network.content_distribution 	repo-26 	40
scalar barabasi_100nodes_network.content_distribution 	repo-27 	76
scalar barabasi_100nodes_network.content_distribution 	repo-28 	22
scalar barabasi_100nodes_network.content_distribution 	repo-29 	34
scalar barabasi_100nodes_network.content_distribution 	repo-30 	5
scalar barabasi_100nodes_network.content_distribution 	repo-31 	51
scalar barabasi_100nodes_network.content_distribution 	repo-32 	88
scalar barabasi_100nodes_network.content_distribution 	repo-33 	85
scalar barabasi_100nodes_network.content_distribution 	repo-34 	49
scalar barabasi_100nodes_network.content_distribution 	repo-35 	45
scalar barabasi_100nodes_network.content_distribution 	repo-36 	71
scalar barabasi_100nodes_network.content_distribution 	repo-37 	7
scalar barabasi_100nodes_network.content_distribution 	repo-38 	6
scalar barabasi_100nodes_network.content_distribution 	repo-39 	79
scalar barabasi_100nodes_network.content_distribution 	repo-40 	38
scalar barabasi_100nodes_network.content_distribution 	repo-41 	83
scalar barabasi_100nodes_network.content_distribution 	repo-42 	10
scalar barabasi_100nodes_network.content_distribution 	repo-43 	61
scalar barabasi_100nodes_network.content_distribution 	repo-44 	62
scalar barabasi_100nodes_network.content_distribution 	repo-45 	36
scalar barabasi_100nodes_network.content_distribution 	repo-46 	94
scalar barabasi_100nodes_network.content_distribution 	repo-47 	0
scalar barabasi_100nodes_network.content_distribution 	repo-48 	47
scalar barabasi_100nodes_network.content_distribution 	repo-49 	89
scalar barabasi_100nodes_network.content_distribution 	repo-50 	41
scalar barabasi_100nodes_network.content_distribution 	repo-51 	81
scalar barabasi_100nodes_network.content_distribution 	repo-52 	59
scalar barabasi_100nodes_network.content_distribution 	repo-53 	72
scalar barabasi_100nodes_network.content_distribution 	repo-54 	37
scalar barabasi_100nodes_network.content_distribution 	repo-55 	13
scalar barabasi_100nodes_network.content_distribution 	repo-56 	65
scalar barabasi_100nodes_network.content_distribution 	repo-57 	53
scalar barabasi_100nodes_network.content_distribution 	repo-58 	97
scalar barabasi_100nodes_network.content_distribution 	repo-59 	67
scalar barabasi_100nodes_network.content_distribution 	repo-60 	57
scalar barabasi_100nodes_network.content_distribution 	repo-61 	50
scalar barabasi_100nodes_network.content_distribution 	repo-62 	35
scalar barabasi_100nodes_network.content_distribution 	repo-63 	20
scalar barabasi_100nodes_network.content_distribution 	repo-64 	60
scalar barabasi_100nodes_network.content_distribution 	repo-65 	4
scalar barabasi_100nodes_network.content_distribution 	repo-66 	91
scalar barabasi_100nodes_network.content_distribution 	repo-67 	43
scalar barabasi_100nodes_network.content_distribution 	repo-68 	3
scalar barabasi_100nodes_network.content_distribution 	repo-69 	29
scalar barabasi_100nodes_network.content_distribution 	repo-70 	9
scalar barabasi_100nodes_network.content_distribution 	repo-71 	39
scalar barabasi_100nodes_network.content_distribution 	repo-72 	63
scalar barabasi_100nodes_network.content_distribution 	repo-73 	55
scalar barabasi_100nodes_network.content_distribution 	repo-74 	56
scalar barabasi_100nodes_network.content_distribution 	repo-75 	87
scalar barabasi_100nodes_network.content_distribution 	repo-76 	27
scalar barabasi_100nodes_network.content_distribution 	repo-77 	95
scalar barabasi_100nodes_network.content_distribution 	repo-78 	31
scalar barabasi_100nodes_network.content_distribution 	repo-79 	80
scalar barabasi_100nodes_network.content_distribution 	repo-80 	14
scalar barabasi_100nodes_network.content_distribution 	repo-81 	8
scalar barabasi_100nodes_network.content_distribution 	repo-82 	69
scalar barabasi_100nodes_network.content_distribution 	repo-83 	44
scalar barabasi_100nodes_network.content_distribution 	repo-84 	96
scalar barabasi_100nodes_network.content_distribution 	repo-85 	17
scalar barabasi_100nodes_network.content_distribution 	repo-86 	15
scalar barabasi_100nodes_network.content_distribution 	repo-87 	78
scalar barabasi_100nodes_network.content_distribution 	repo-88 	93
scalar barabasi_100nodes_network.content_distribution 	repo-89 	42
scalar barabasi_100nodes_network.content_distribution 	repo-90 	64
scalar barabasi_100nodes_network.content_distribution 	repo-91 	84
scalar barabasi_100nodes_network.content_distribution 	repo-92 	33
scalar barabasi_100nodes_network.content_distribution 	repo-93 	70
scalar barabasi_100nodes_network.content_distribution 	repo-94 	92
scalar barabasi_100nodes_network.content_distribution 	repo-95 	23
scalar barabasi_100nodes_network.content_distribution 	repo-96 	68
scalar barabasi_100nodes_network.content_distribution 	repo-97 	90
scalar barabasi_100nodes_network.content_distribution 	repo-98 	30
scalar barabasi_100nodes_network.content_distribution 	repo-99 	12
scalar barabasi_100nodes_network.content_distribution 	client-0 	66
scalar barabasi_100nodes_network.content_distribution 	client-1 	63
scalar barabasi_100nodes_network.content_distribution 	client-2 	51
scalar barabasi_100nodes_network.content_distribution 	client-3 	44
scalar barabasi_100nodes_network.content_distribution 	client-4 	78
scalar barabasi_100nodes_network.content_distribution 	client-5 	90
scalar barabasi_100nodes_network.content_distribution 	client-6 	52
scalar barabasi_100nodes_network.content_distribution 	client-7 	18
scalar barabasi_100nodes_network.content_distribution 	client-8 	69
scalar barabasi_100nodes_network.content_distribution 	client-9 	88
scalar barabasi_100nodes_network.content_distribution 	client-10 	30
scalar barabasi_100nodes_network.content_distribution 	client-11 	53
scalar barabasi_100nodes_network.content_distribution 	client-12 	73
scalar barabasi_100nodes_network.content_distribution 	client-13 	28
scalar barabasi_100nodes_network.content_distribution 	client-14 	89
scalar barabasi_100nodes_network.content_distribution 	client-15 	46
scalar barabasi_100nodes_network.content_distribution 	client-16 	40
scalar barabasi_100nodes_network.content_distribution 	client-17 	94
scalar barabasi_100nodes_network.content_distribution 	client-18 	87
scalar barabasi_100nodes_network.content_distribution 	client-19 	39
scalar barabasi_100nodes_network.content_distribution 	client-20 	82
scalar barabasi_100nodes_network.content_distribution 	client-21 	35
scalar barabasi_100nodes_network.content_distribution 	client-22 	84
scalar barabasi_100nodes_network.content_distribution 	client-23 	54
scalar barabasi_100nodes_network.content_distribution 	client-24 	20
scalar barabasi_100nodes_network.content_distribution 	client-25 	5
scalar barabasi_100nodes_network.content_distribution 	client-26 	4
scalar barabasi_100nodes_network.content_distribution 	client-27 	43
scalar barabasi_100nodes_network.content_distribution 	client-28 	1
scalar barabasi_100nodes_network.content_distribution 	client-29 	49
scalar barabasi_100nodes_network.content_distribution 	client-30 	15
scalar barabasi_100nodes_network.content_distribution 	client-31 	12
scalar barabasi_100nodes_network.content_distribution 	client-32 	86
scalar barabasi_100nodes_network.content_distribution 	client-33 	24
scalar barabasi_100nodes_network.content_distribution 	client-34 	19
scalar barabasi_100nodes_network.content_distribution 	client-35 	16
scalar barabasi_100nodes_network.content_distribution 	client-36 	38
scalar barabasi_100nodes_network.content_distribution 	client-37 	62
scalar barabasi_100nodes_network.content_distribution 	client-38 	57
scalar barabasi_100nodes_network.content_distribution 	client-39 	95
scalar barabasi_100nodes_network.content_distribution 	client-40 	2
scalar barabasi_100nodes_network.content_distribution 	client-41 	68
scalar barabasi_100nodes_network.content_distribution 	client-42 	6
scalar barabasi_100nodes_network.content_distribution 	client-43 	55
scalar barabasi_100nodes_network.content_distribution 	client-44 	80
scalar barabasi_100nodes_network.content_distribution 	client-45 	72
scalar barabasi_100nodes_network.content_distribution 	client-46 	41
scalar barabasi_100nodes_network.content_distribution 	client-47 	14
scalar barabasi_100nodes_network.content_distribution 	client-48 	96
scalar barabasi_100nodes_network.content_distribution 	client-49 	59
scalar barabasi_100nodes_network.content_distribution 	client-50 	21
scalar barabasi_100nodes_network.content_distribution 	client-51 	67
scalar barabasi_100nodes_network.content_distribution 	client-52 	27
scalar barabasi_100nodes_network.content_distribution 	client-53 	32
scalar barabasi_100nodes_network.content_distribution 	client-54 	37
scalar barabasi_100nodes_network.content_distribution 	client-55 	23
scalar barabasi_100nodes_network.content_distribution 	client-56 	79
scalar barabasi_100nodes_network.content_distribution 	client-57 	34
scalar barabasi_100nodes_network.content_distribution 	client-58 	92
scalar barabasi_100nodes_network.content_distribution 	client-59 	42
scalar barabasi_100nodes_network.content_distribution 	client-60 	11
scalar barabasi_100nodes_network.content_distribution 	client-61 	65
scalar barabasi_100nodes_network.content_distribution 	client-62 	97
scalar barabasi_100nodes_network.content_distribution 	client-63 	50
scalar barabasi_100nodes_network.content_distribution 	client-64 	83
scalar barabasi_100nodes_network.content_distribution 	client-65 	60
scalar barabasi_100nodes_network.content_distribution 	client-66 	36
scalar barabasi_100nodes_network.content_distribution 	client-67 	71
scalar barabasi_100nodes_network.content_distribution 	client-68 	74
scalar barabasi_100nodes_network.content_distribution 	client-69 	45
scalar barabasi_100nodes_network.content_distribution 	client-70 	99
scalar barabasi_100nodes_network.content_distribution 	client-71 	76
scalar barabasi_100nodes_network.content_distribution 	client-72 	22
scalar barabasi_100nodes_network.content_distribution 	client-73 	7
scalar barabasi_100nodes_network.content_distribution 	client-74 	58
scalar barabasi_100nodes_network.content_distribution 	client-75 	93
scalar barabasi_100nodes_network.content_distribution 	client-76 	75
scalar barabasi_100nodes_network.content_distribution 	client-77 	8
scalar barabasi_100nodes_network.content_distribution 	client-78 	47
scalar barabasi_100nodes_network.content_distribution 	client-79 	98
scalar barabasi_100nodes_network.content_distribution 	client-80 	91
scalar barabasi_100nodes_network.content_distribution 	client-81 	33
scalar barabasi_100nodes_network.content_distribution 	client-82 	81
scalar barabasi_100nodes_network.content_distribution 	client-83 	25
scalar barabasi_100nodes_network.content_distribution 	client-84 	70
scalar barabasi_100nodes_network.content_distribution 	client-85 	9
scalar barabasi_100nodes_network.content_distribution 	client-86 	64
scalar barabasi_100nodes_network.content_distribution 	client-87 	26
scalar barabasi_100nodes_network.content_distribution 	client-88 	13
scalar barabasi_100nodes_network.content_distribution 	client-89 	3
scalar barabasi_100nodes_network.content_distribution 	client-90 	48
scalar barabasi_100nodes_network.content_distribution 	client-91 	61
scalar barabasi_100nodes_network.content_distribution 	client-92 	77
scalar barabasi_100nodes_network.content_distribution 	client-93 	29
scalar barabasi_100nodes_network.content_distribution 	client-94 	17
scalar barabasi_100nodes_network.content_distribution 	client-95 	56
scalar barabasi_100nodes_network.content_distribution 	client-96 	31
scalar barabasi_100nodes_network.content_distribution 	client-97 	10
scalar barabasi_100nodes_network.content_distribution 	client-98 	0
scalar barabasi_100nodes_network.content_distribution 	client-99 	85
scalar barabasi_100nodes_network.content_distribution 	repo-0_card 	249422
scalar barabasi_100nodes_network.content_distribution 	repo-0_price 	0
scalar barabasi_100nodes_network.content_distribution 	repo-1_card 	250186
scalar barabasi_100nodes_network.content_distribution 	repo-1_price 	0
scalar barabasi_100nodes_network.content_distribution 	repo-2_card 	250640
scalar barabasi_100nodes_network.content_distribution 	repo-2_price 	0
scalar barabasi_100nodes_network.content_distribution 	repo-3_card 	249752
scalar barabasi_100nodes_network.content_distribution 	repo-3_price 	0
scalar barabasi_100nodes_network.content_distribution 	repo-4_card 	0
scalar barabasi_100nodes_network.content_distribution 	repo-4_price 	0
scalar barabasi_100nodes_network.content_distribution 	repo-5_card 	0
scalar barabasi_100nodes_network.content_distribution 	repo-5_price 	0
scalar barabasi_100nodes_network.content_distribution 	repo-6_card 	0
scalar barabasi_100nodes_network.content_distribution 	repo-6_price 	0
scalar barabasi_100nodes_network.content_distribution 	repo-7_card 	0
scalar barabasi_100nodes_network.content_distribution 	repo-7_price 	0
scalar barabasi_100nodes_network.content_distribution 	repo-8_card 	0
scalar barabasi_100nodes_network.content_distribution 	repo-8_price 	0
scalar barabasi_100nodes_network.content_distribution 	repo-9_card 	0
scalar barabasi_100nodes_network.content_distribution 	repo-9_price 	0
scalar barabasi_100nodes_network.content_distribution 	repo-10_card 	0
scalar barabasi_100nodes_network.content_distribution 	repo-10_price 	0
scalar barabasi_100nodes_network.content_distribution 	repo-11_card 	0
scalar barabasi_100nodes_network.content_distribution 	repo-11_price 	0
scalar barabasi_100nodes_network.content_distribution 	repo-12_card 	0
scalar barabasi_100nodes_network.content_distribution 	repo-12_price 	0
scalar barabasi_100nodes_network.content_distribution 	repo-13_card 	0
scalar barabasi_100nodes_network.content_distribution 	repo-13_price 	0
scalar barabasi_100nodes_network.content_distribution 	repo-14_card 	0
scalar barabasi_100nodes_network.content_distribution 	repo-14_price 	0
scalar barabasi_100nodes_network.content_distribution 	repo-15_card 	0
scalar barabasi_100nodes_network.content_distribution 	repo-15_price 	0
scalar barabasi_100nodes_network.content_distribution 	repo-16_card 	0
scalar barabasi_100nodes_network.content_distribution 	repo-16_price 	0
scalar barabasi_100nodes_network.content_distribution 	repo-17_card 	0
scalar barabasi_100nodes_network.content_distribution 	repo-17_price 	0
scalar barabasi_100nodes_network.content_distribution 	repo-18_card 	0
scalar barabasi_100nodes_network.content_distribution 	repo-18_price 	0
scalar barabasi_100nodes_network.content_distribution 	repo-19_card 	0
scalar barabasi_100nodes_network.content_distribution 	repo-19_price 	0
scalar barabasi_100nodes_network.content_distribution 	repo-20_card 	0
scalar barabasi_100nodes_network.content_distribution 	repo-20_price 	0
scalar barabasi_100nodes_network.content_distribution 	repo-21_card 	0
scalar barabasi_100nodes_network.content_distribution 	repo-21_price 	0
scalar barabasi_100nodes_network.content_distribution 	repo-22_card 	0
scalar barabasi_100nodes_network.content_distribution 	repo-22_price 	0
scalar barabasi_100nodes_network.content_distribution 	repo-23_card 	0
scalar barabasi_100nodes_network.content_distribution 	repo-23_price 	0
scalar barabasi_100nodes_network.content_distribution 	repo-24_card 	0
scalar barabasi_100nodes_network.content_distribution 	repo-24_price 	0
scalar barabasi_100nodes_network.content_distribution 	repo-25_card 	0
scalar barabasi_100nodes_network.content_distribution 	repo-25_price 	0
scalar barabasi_100nodes_network.content_distribution 	repo-26_card 	0
scalar barabasi_100nodes_network.content_distribution 	repo-26_price 	0
scalar barabasi_100nodes_network.content_distribution 	repo-27_card 	0
scalar barabasi_100nodes_network.content_distribution 	repo-27_price 	0
scalar barabasi_100nodes_network.content_distribution 	repo-28_card 	0
scalar barabasi_100nodes_network.content_distribution 	repo-28_price 	0
scalar barabasi_100nodes_network.content_distribution 	repo-29_card 	0
scalar barabasi_100nodes_network.content_distribution 	repo-29_price 	0
scalar barabasi_100nodes_network.content_distribution 	repo-30_card 	0
scalar barabasi_100nodes_network.content_distribution 	repo-30_price 	0
scalar barabasi_100nodes_network.content_distribution 	repo-31_card 	0
scalar barabasi_100nodes_network.content_distribution 	repo-31_price 	0
scalar barabasi_100nodes_network.content_distribution 	repo-32_card 	0
scalar barabasi_100nodes_network.content_distribution 	repo-32_price 	0
scalar barabasi_100nodes_network.content_distribution 	repo-33_card 	0
scalar barabasi_100nodes_network.content_distribution 	repo-33_price 	0
scalar barabasi_100nodes_network.content_distribution 	repo-34_card 	0
scalar barabasi_100nodes_network.content_distribution 	repo-34_price 	0
scalar barabasi_100nodes_network.content_distribution 	repo-35_card 	0
scalar barabasi_100nodes_network.content_distribution 	repo-35_price 	0
scalar barabasi_100nodes_network.content_distribution 	repo-36_card 	0
scalar barabasi_100nodes_network.content_distribution 	repo-36_price 	0
scalar barabasi_100nodes_network.content_distribution 	repo-37_card 	0
scalar barabasi_100nodes_network.content_distribution 	repo-37_price 	0
scalar barabasi_100nodes_network.content_distribution 	repo-38_card 	0
scalar barabasi_100nodes_network.content_distribution 	repo-38_price 	0
scalar barabasi_100nodes_network.content_distribution 	repo-39_card 	0
scalar barabasi_100nodes_network.content_distribution 	repo-39_price 	0
scalar barabasi_100nodes_network.content_distribution 	repo-40_card 	0
scalar barabasi_100nodes_network.content_distribution 	repo-40_price 	0
scalar barabasi_100nodes_network.content_distribution 	repo-41_card 	0
scalar barabasi_100nodes_network.content_distribution 	repo-41_price 	0
scalar barabasi_100nodes_network.content_distribution 	repo-42_card 	0
scalar barabasi_100nodes_network.content_distribution 	repo-42_price 	0
scalar barabasi_100nodes_network.content_distribution 	repo-43_card 	0
scalar barabasi_100nodes_network.content_distribution 	repo-43_price 	0
scalar barabasi_100nodes_network.content_distribution 	repo-44_card 	0
scalar barabasi_100nodes_network.content_distribution 	repo-44_price 	0
scalar barabasi_100nodes_network.content_distribution 	repo-45_card 	0
scalar barabasi_100nodes_network.content_distribution 	repo-45_price 	0
scalar barabasi_100nodes_network.content_distribution 	repo-46_card 	0
scalar barabasi_100nodes_network.content_distribution 	repo-46_price 	0
scalar barabasi_100nodes_network.content_distribution 	repo-47_card 	0
scalar barabasi_100nodes_network.content_distribution 	repo-47_price 	0
scalar barabasi_100nodes_network.content_distribution 	repo-48_card 	0
scalar barabasi_100nodes_network.content_distribution 	repo-48_price 	0
scalar barabasi_100nodes_network.content_distribution 	repo-49_card 	0
scalar barabasi_100nodes_network.content_distribution 	repo-49_price 	0
scalar barabasi_100nodes_network.content_distribution 	repo-50_card 	0
scalar barabasi_100nodes_network.content_distribution 	repo-50_price 	0
scalar barabasi_100nodes_network.content_distribution 	repo-51_card 	0
scalar barabasi_100nodes_network.content_distribution 	repo-51_price 	0
scalar barabasi_100nodes_network.content_distribution 	repo-52_card 	0
scalar barabasi_100nodes_network.content_distribution 	repo-52_price 	0
scalar barabasi_100nodes_network.content_distribution 	repo-53_card 	0
scalar barabasi_100nodes_network.content_distribution 	repo-53_price 	0
scalar barabasi_100nodes_network.content_distribution 	repo-54_card 	0
scalar barabasi_100nodes_network.content_distribution 	repo-54_price 	0
scalar barabasi_100nodes_network.content_distribution 	repo-55_card 	0
scalar barabasi_100nodes_network.content_distribution 	repo-55_price 	0
scalar barabasi_100nodes_network.content_distribution 	repo-56_card 	0
scalar barabasi_100nodes_network.content_distribution 	repo-56_price 	0
scalar barabasi_100nodes_network.content_distribution 	repo-57_card 	0
scalar barabasi_100nodes_network.content_distribution 	repo-57_price 	0
scalar barabasi_100nodes_network.content_distribution 	repo-58_card 	0
scalar barabasi_100nodes_network.content_distribution 	repo-58_price 	0
scalar barabasi_100nodes_network.content_distribution 	repo-59_card 	0
scalar barabasi_100nodes_network.content_distribution 	repo-59_price 	0
scalar barabasi_100nodes_network.content_distribution 	repo-60_card 	0
scalar barabasi_100nodes_network.content_distribution 	repo-60_price 	0
scalar barabasi_100nodes_network.content_distribution 	repo-61_card 	0
scalar barabasi_100nodes_network.content_distribution 	repo-61_price 	0
scalar barabasi_100nodes_network.content_distribution 	repo-62_card 	0
scalar barabasi_100nodes_network.content_distribution 	repo-62_price 	0
scalar barabasi_100nodes_network.content_distribution 	repo-63_card 	0
scalar barabasi_100nodes_network.content_distribution 	repo-63_price 	0
scalar barabasi_100nodes_network.content_distribution 	repo-64_card 	0
scalar barabasi_100nodes_network.content_distribution 	repo-64_price 	0
scalar barabasi_100nodes_network.content_distribution 	repo-65_card 	0
scalar barabasi_100nodes_network.content_distribution 	repo-65_price 	0
scalar barabasi_100nodes_network.content_distribution 	repo-66_card 	0
scalar barabasi_100nodes_network.content_distribution 	repo-66_price 	0
scalar barabasi_100nodes_network.content_distribution 	repo-67_card 	0
scalar barabasi_100nodes_network.content_distribution 	repo-67_price 	0
scalar barabasi_100nodes_network.content_distribution 	repo-68_card 	0
scalar barabasi_100nodes_network.content_distribution 	repo-68_price 	0
scalar barabasi_100nodes_network.content_distribution 	repo-69_card 	0
scalar barabasi_100nodes_network.content_distribution 	repo-69_price 	0
scalar barabasi_100nodes_network.content_distribution 	repo-70_card 	0
scalar barabasi_100nodes_network.content_distribution 	repo-70_price 	0
scalar barabasi_100nodes_network.content_distribution 	repo-71_card 	0
scalar barabasi_100nodes_network.content_distribution 	repo-71_price 	0
scalar barabasi_100nodes_network.content_distribution 	repo-72_card 	0
scalar barabasi_100nodes_network.content_distribution 	repo-72_price 	0
scalar barabasi_100nodes_network.content_distribution 	repo-73_card 	0
scalar barabasi_100nodes_network.content_distribution 	repo-73_price 	0
scalar barabasi_100nodes_network.content_distribution 	repo-74_card 	0
scalar barabasi_100nodes_network.content_distribution 	repo-74_price 	0
scalar barabasi_100nodes_network.content_distribution 	repo-75_card 	0
scalar barabasi_100nodes_network.content_distribution 	repo-75_price 	0
scalar barabasi_100nodes_network.content_distribution 	repo-76_card 	0
scalar barabasi_100nodes_network.content_distribution 	repo-76_price 	0
scalar barabasi_100nodes_network.content_distribution 	repo-77_card 	0
scalar barabasi_100nodes_network.content_distribution 	repo-77_price 	0
scalar barabasi_100nodes_network.content_distribution 	repo-78_card 	0
scalar barabasi_100nodes_network.content_distribution 	repo-78_price 	0
scalar barabasi_100nodes_network.content_distribution 	repo-79_card 	0
scalar barabasi_100nodes_network.content_distribution 	repo-79_price 	0
scalar barabasi_100nodes_network.content_distribution 	repo-80_card 	0
scalar barabasi_100nodes_network.content_distribution 	repo-80_price 	0
scalar barabasi_100nodes_network.content_distribution 	repo-81_card 	0
scalar barabasi_100nodes_network.content_distribution 	repo-81_price 	0
scalar barabasi_100nodes_network.content_distribution 	repo-82_card 	0
scalar barabasi_100nodes_network.content_distribution 	repo-82_price 	0
scalar barabasi_100nodes_network.content_distribution 	repo-83_card 	0
scalar barabasi_100nodes_network.content_distribution 	repo-83_price 	0
scalar barabasi_100nodes_network.content_distribution 	repo-84_card 	0
scalar barabasi_100nodes_network.content_distribution 	repo-84_price 	0
scalar barabasi_100nodes_network.content_distribution 	repo-85_card 	0
scalar barabasi_100nodes_network.content_distribution 	repo-85_price 	0
scalar barabasi_100nodes_network.content_distribution 	repo-86_card 	0
scalar barabasi_100nodes_network.content_distribution 	repo-86_price 	0
scalar barabasi_100nodes_network.content_distribution 	repo-87_card 	0
scalar barabasi_100nodes_network.content_distribution 	repo-87_price 	0
scalar barabasi_100nodes_network.content_distribution 	repo-88_card 	0
scalar barabasi_100nodes_network.content_distribution 	repo-88_price 	0
scalar barabasi_100nodes_network.content_distribution 	repo-89_card 	0
scalar barabasi_100nodes_network.content_distribution 	repo-89_price 	0
scalar barabasi_100nodes_network.content_distribution 	repo-90_card 	0
scalar barabasi_100nodes_network.content_distribution 	repo-90_price 	0
scalar barabasi_100nodes_network.content_distribution 	repo-91_card 	0
scalar barabasi_100nodes_network.content_distribution 	repo-91_price 	0
scalar barabasi_100nodes_network.content_distribution 	repo-92_card 	0
scalar barabasi_100nodes_network.content_distribution 	repo-92_price 	0
scalar barabasi_100nodes_network.content_distribution 	repo-93_card 	0
scalar barabasi_100nodes_network.content_distribution 	repo-93_price 	0
scalar barabasi_100nodes_network.content_distribution 	repo-94_card 	0
scalar barabasi_100nodes_network.content_distribution 	repo-94_price 	0
scalar barabasi_100nodes_network.content_distribution 	repo-95_card 	0
scalar barabasi_100nodes_network.content_distribution 	repo-95_price 	0
scalar barabasi_100nodes_network.content_distribution 	repo-96_card 	0
scalar barabasi_100nodes_network.content_distribution 	repo-96_price 	0
scalar barabasi_100nodes_network.content_distribution 	repo-97_card 	0
scalar barabasi_100nodes_network.content_distribution 	repo-97_price 	0
scalar barabasi_100nodes_network.content_distribution 	repo-98_card 	0
scalar barabasi_100nodes_network.content_distribution 	repo-98_price 	0
scalar barabasi_100nodes_network.content_distribution 	repo-99_card 	0
scalar barabasi_100nodes_network.content_distribution 	repo-99_price 	0
scalar barabasi_100nodes_network.statistics 	stabilization_time 	6333.9
scalar barabasi_100nodes_network.statistics 	p_hit 	0.50056675388839
scalar barabasi_100nodes_network.statistics 	interests 	301656.51
scalar barabasi_100nodes_network.statistics 	data 	121615.4
scalar barabasi_100nodes_network.statistics 	hdistance 	0.836790041548
scalar barabasi_100nodes_network.statistics 	avg_time 	0
scalar barabasi_100nodes_network.statistics 	downloads 	18004111
scalar barabasi_100nodes_network.statistics 	total_cost 	0
scalar barabasi_100nodes_network.statistics 	total_replicas 	1000000
scalar barabasi_100nodes_network.statistics 	"representations_downloaded 1:" 	0
scalar barabasi_100nodes_network.statistics 	"slots_per_representation 100:" 	0
scalar barabasi_100nodes_network.statistics 	inner_hit 	0.83869300739148
scalar barabasi_100nodes_network.statistics 	execution_time 	2045
scalar barabasi_100nodes_network.node[0].core_layer 	interests[0] 	1670709
scalar barabasi_100nodes_network.node[0].core_layer 	data[0] 	1232854
scalar barabasi_100nodes_network.node[0].core_layer 	slots_sent[face$o[1]->client[0]] 	18055700
scalar barabasi_100nodes_network.node[0].core_layer 	slots_sent[face$o[2]->node[1]] 	4195800
scalar barabasi_100nodes_network.node[0].core_layer 	slots_sent[face$o[3]->node[2]] 	55492500
scalar barabasi_100nodes_network.node[0].core_layer 	slots_sent[face$o[4]->node[5]] 	14615200
scalar barabasi_100nodes_network.node[0].core_layer 	slots_sent[face$o[5]->node[10]] 	7873200
scalar barabasi_100nodes_network.node[0].core_layer 	slots_sent[face$o[6]->node[11]] 	4245900
scalar barabasi_100nodes_network.node[0].core_layer 	slots_sent[face$o[7]->node[15]] 	11337000
scalar barabasi_100nodes_network.node[0].core_layer 	slots_sent[face$o[8]->node[21]] 	11371600
scalar barabasi_100nodes_network.node[0].core_layer 	slots_sent[face$o[9]->node[22]] 	4216300
scalar barabasi_100nodes_network.node[0].core_layer 	slots_sent[face$o[10]->node[28]] 	4224800
scalar barabasi_100nodes_network.node[0].core_layer 	slots_sent[face$o[11]->node[37]] 	4230000
scalar barabasi_100nodes_network.node[0].core_layer 	slots_sent[face$o[12]->node[44]] 	4204300
scalar barabasi_100nodes_network.node[0].core_layer 	slots_sent[face$o[13]->node[58]] 	7896100
scalar barabasi_100nodes_network.node[0].core_layer 	slots_sent[face$o[14]->node[73]] 	7852100
scalar barabasi_100nodes_network.node[0].core_layer 	slots_sent[face$o[15]->node[74]] 	3027500
scalar barabasi_100nodes_network.node[0].core_layer 	slots_sent[face$o[16]->node[93]] 	4232900
scalar barabasi_100nodes_network.node[0].content_store 	p_hit[0] 	0.26207735757693
scalar barabasi_100nodes_network.node[0].content_store 	hits[0] 	437855
scalar barabasi_100nodes_network.node[0].content_store 	misses[0] 	1232854
scalar barabasi_100nodes_network.node[0].content_store 	decision_yes[0] 	1232854
scalar barabasi_100nodes_network.node[0].content_store 	decision_no[0] 	0
scalar barabasi_100nodes_network.node[0].content_store 	decision_ratio[0] 	1
scalar barabasi_100nodes_network.node[1].core_layer 	interests[1] 	179731
scalar barabasi_100nodes_network.node[1].core_layer 	data[1] 	41958
scalar barabasi_100nodes_network.node[1].core_layer 	slots_sent[face$o[1]->client[1]] 	17973100
scalar barabasi_100nodes_network.node[1].core_layer 	slots_sent[face$o[2]->node[0]] 	0
scalar barabasi_100nodes_network.node[1].content_store 	p_hit[1] 	0.76655112362364
scalar barabasi_100nodes_network.node[1].content_store 	hits[1] 	137773
scalar barabasi_100nodes_network.node[1].content_store 	misses[1] 	41958
scalar barabasi_100nodes_network.node[1].content_store 	decision_yes[1] 	41958
scalar barabasi_100nodes_network.node[1].content_store 	decision_no[1] 	0
scalar barabasi_100nodes_network.node[1].content_store 	decision_ratio[1] 	1
scalar barabasi_100nodes_network.node[2].core_layer 	interests[2] 	3168102
scalar barabasi_100nodes_network.node[2].core_layer 	data[2] 	2469261
scalar barabasi_100nodes_network.node[2].core_layer 	slots_sent[face$o[1]->client[2]] 	17982200
scalar barabasi_100nodes_network.node[2].core_layer 	slots_sent[face$o[2]->node[0]] 	64669600
scalar barabasi_100nodes_network.node[2].core_layer 	slots_sent[face$o[3]->node[3]] 	7887300
scalar barabasi_100nodes_network.node[2].core_layer 	slots_sent[face$o[4]->node[4]] 	11936200
scalar barabasi_100nodes_network.node[2].core_layer 	slots_sent[face$o[5]->node[6]] 	4196400
scalar barabasi_100nodes_network.node[2].core_layer 	slots_sent[face$o[6]->node[7]] 	38527600
scalar barabasi_100nodes_network.node[2].core_layer 	slots_sent[face$o[7]->node[8]] 	25934400
scalar barabasi_100nodes_network.node[2].core_layer 	slots_sent[face$o[8]->node[13]] 	17903000
scalar barabasi_100nodes_network.node[2].core_layer 	slots_sent[face$o[9]->node[16]] 	17292200
scalar barabasi_100nodes_network.node[2].core_layer 	slots_sent[face$o[10]->node[18]] 	13614300
scalar barabasi_100nodes_network.node[2].core_layer 	slots_sent[face$o[11]->node[25]] 	7950300
scalar barabasi_100nodes_network.node[2].core_layer 	slots_sent[face$o[12]->node[26]] 	13583500
scalar barabasi_100nodes_network.node[2].core_layer 	slots_sent[face$o[13]->node[29]] 	4198000
scalar barabasi_100nodes_network.node[2].core_layer 	slots_sent[face$o[14]->node[32]] 	10332600
scalar barabasi_100nodes_network.node[2].core_layer 	slots_sent[face$o[15]->node[33]] 	4184500
scalar barabasi_100nodes_network.node[2].core_layer 	slots_sent[face$o[16]->node[34]] 	4205600
scalar barabasi_100nodes_network.node[2].core_layer 	slots_sent[face$o[17]->node[36]] 	7902800
scalar barabasi_100nodes_network.node[2].core_layer 	slots_sent[face$o[18]->node[41]] 	21670900
scalar barabasi_100nodes_network.node[2].core_layer 	slots_sent[face$o[19]->node[45]] 	3011300
scalar barabasi_100nodes_network.node[2].core_layer 	slots_sent[face$o[20]->node[59]] 	4228300
scalar barabasi_100nodes_network.node[2].core_layer 	slots_sent[face$o[21]->node[62]] 	11381000
scalar barabasi_100nodes_network.node[2].core_layer 	slots_sent[face$o[22]->node[79]] 	4218200
scalar barabasi_100nodes_network.node[2].content_store 	p_hit[2] 	0.22058664777839
scalar barabasi_100nodes_network.node[2].content_store 	hits[2] 	698841
scalar barabasi_100nodes_network.node[2].content_store 	misses[2] 	2469261
scalar barabasi_100nodes_network.node[2].content_store 	decision_yes[2] 	2469261
scalar barabasi_100nodes_network.node[2].content_store 	decision_no[2] 	0
scalar barabasi_100nodes_network.node[2].content_store 	decision_ratio[2] 	1
scalar barabasi_100nodes_network.node[3].core_layer 	interests[3] 	222478
scalar barabasi_100nodes_network.node[3].core_layer 	data[3] 	78873
scalar barabasi_100nodes_network.node[3].core_layer 	slots_sent[face$o[1]->client[3]] 	18065100
scalar barabasi_100nodes_network.node[3].core_layer 	slots_sent[face$o[2]->node[2]] 	0
scalar barabasi_100nodes_network.node[3].core_layer 	slots_sent[face$o[3]->node[52]] 	4182700
scalar barabasi_100nodes_network.node[3].content_store 	p_hit[3] 	0.64547955303446
scalar barabasi_100nodes_network.node[3].content_store 	hits[3] 	143605
scalar barabasi_100nodes_network.node[3].content_store 	misses[3] 	78873
scalar barabasi_100nodes_network.node[3].content_store 	decision_yes[3] 	78873
scalar barabasi_100nodes_network.node[3].content_store 	decision_no[3] 	0
scalar barabasi_100nodes_network.node[3].content_store 	decision_ratio[3] 	1
scalar barabasi_100nodes_network.node[4].core_layer 	interests[4] 	331538
scalar barabasi_100nodes_network.node[4].core_layer 	repo_load[4] 	71122
scalar barabasi_100nodes_network.node[4].core_layer 	data[4] 	119362
scalar barabasi_100nodes_network.node[4].core_layer 	slots_sent[face$o[1]->client[4]] 	18054200
scalar barabasi_100nodes_network.node[4].core_layer 	slots_sent[face$o[2]->node[2]] 	0
scalar barabasi_100nodes_network.node[4].core_layer 	slots_sent[face$o[3]->node[27]] 	7860400
scalar barabasi_100nodes_network.node[4].core_layer 	slots_sent[face$o[4]->node[30]] 	4231200
scalar barabasi_100nodes_network.node[4].core_layer 	slots_sent[face$o[5]->node[85]] 	3008000
scalar barabasi_100nodes_network.node[4].content_store 	p_hit[4] 	0.42545349251066
scalar barabasi_100nodes_network.node[4].content_store 	hits[4] 	141054
scalar barabasi_100nodes_network.node[4].content_store 	misses[4] 	190484
scalar barabasi_100nodes_network.node[4].content_store 	decision_yes[4] 	119362
scalar barabasi_100nodes_network.node[4].content_store 	decision_no[4] 	71122
scalar barabasi_100nodes_network.node[4].content_store 	decision_ratio[4] 	0.62662480838286
scalar barabasi_100nodes_network.node[5].core_layer 	interests[5] 	300905
scalar barabasi_100nodes_network.node[5].core_layer 	data[5] 	146152
scalar barabasi_100nodes_network.node[5].core_layer 	slots_sent[face$o[1]->client[5]] 	18011400
scalar barabasi_100nodes_network.node[5].core_layer 	slots_sent[face$o[2]->node[0]] 	0
scalar barabasi_100nodes_network.node[5].core_layer 	slots_sent[face$o[3]->node[9]] 	4180900
scalar barabasi_100nodes_network.node[5].core_layer 	slots_sent[face$o[4]->node[35]] 	7898200
scalar barabasi_100nodes_network.node[5].content_store 	p_hit[5] 	0.51429188614347
scalar barabasi_100nodes_network.node[5].content_store 	hits[5] 	154753
scalar barabasi_100nodes_network.node[5].content_store 	misses[5] 	146152
scalar barabasi_100nodes_network.node[5].content_store 	decision_yes[5] 	146152
scalar barabasi_100nodes_network.node[5].content_store 	decision_no[5] 	0
scalar barabasi_100nodes_network.node[5].content_store 	decision_ratio[5] 	1
scalar barabasi_100nodes_network.node[6].core_layer 	interests[6] 	179223
scalar barabasi_100nodes_network.node[6].core_layer 	data[6] 	41964
scalar barabasi_100nodes_network.node[6].core_layer 	slots_sent[face$o[1]->client[6]] 	17922300
scalar barabasi_100nodes_network.node[6].core_layer 	slots_sent[face$o[2]->node[2]] 	0
scalar barabasi_100nodes_network.node[6].content_store 	p_hit[6] 	0.76585594482851
scalar barabasi_100nodes_network.node[6].content_store 	hits[6] 	137259
scalar barabasi_100nodes_network.node[6].content_store 	misses[6] 	41964
scalar barabasi_100nodes_network.node[6].content_store 	decision_yes[6] 	41964
scalar barabasi_100nodes_network.node[6].content_store 	decision_no[6] 	0
scalar barabasi_100nodes_network.node[6].content_store 	decision_ratio[6] 	1
scalar barabasi_100nodes_network.node[7].core_layer 	interests[7] 	1232640
scalar barabasi_100nodes_network.node[7].core_layer 	data[7] 	885540
scalar barabasi_100nodes_network.node[7].core_layer 	slots_sent[face$o[1]->client[7]] 	17900000
scalar barabasi_100nodes_network.node[7].core_layer 	slots_sent[face$o[2]->node[2]] 	61603100
scalar barabasi_100nodes_network.node[7].core_layer 	slots_sent[face$o[3]->node[23]] 	22898900
scalar barabasi_100nodes_network.node[7].core_layer 	slots_sent[face$o[4]->node[31]] 	14841300
scalar barabasi_100nodes_network.node[7].core_layer 	slots_sent[face$o[5]->node[49]] 	2981000
scalar barabasi_100nodes_network.node[7].core_layer 	slots_sent[face$o[6]->node[90]] 	3039700
scalar barabasi_100nodes_network.node[7].content_store 	p_hit[7] 	0.28159073208723
scalar barabasi_100nodes_network.node[7].content_store 	hits[7] 	347100
scalar barabasi_100nodes_network.node[7].content_store 	misses[7] 	885540
scalar barabasi_100nodes_network.node[7].content_store 	decision_yes[7] 	885540
scalar barabasi_100nodes_network.node[7].content_store 	decision_no[7] 	0
scalar barabasi_100nodes_network.node[7].content_store 	decision_ratio[7] 	1
scalar barabasi_100nodes_network.node[8].core_layer 	interests[8] 	446984
scalar barabasi_100nodes_network.node[8].core_layer 	data[8] 	259344
scalar barabasi_100nodes_network.node[8].core_layer 	slots_sent[face$o[1]->client[8]] 	18018400
scalar barabasi_100nodes_network.node[8].core_layer 	slots_sent[face$o[2]->node[2]] 	0
scalar barabasi_100nodes_network.node[8].core_layer 	slots_sent[face$o[3]->node[12]] 	2978100
scalar barabasi_100nodes_network.node[8].core_layer 	slots_sent[face$o[4]->node[14]] 	4214900
scalar barabasi_100nodes_network.node[8].core_layer 	slots_sent[face$o[5]->node[17]] 	4255100
scalar barabasi_100nodes_network.node[8].core_layer 	slots_sent[face$o[6]->node[39]] 	6767600
scalar barabasi_100nodes_network.node[8].core_layer 	slots_sent[face$o[7]->node[61]] 	4208800
scalar barabasi_100nodes_network.node[8].core_layer 	slots_sent[face$o[8]->node[66]] 	4255500
scalar barabasi_100nodes_network.node[8].content_store 	p_hit[8] 	0.41979131244071
scalar barabasi_100nodes_network.node[8].content_store 	hits[8] 	187640
scalar barabasi_100nodes_network.node[8].content_store 	misses[8] 	259344
scalar barabasi_100nodes_network.node[8].content_store 	decision_yes[8] 	259344
scalar barabasi_100nodes_network.node[8].content_store 	decision_no[8] 	0
scalar barabasi_100nodes_network.node[8].content_store 	decision_ratio[8] 	1
scalar barabasi_100nodes_network.node[9].core_layer 	interests[9] 	179635
scalar barabasi_100nodes_network.node[9].core_layer 	data[9] 	41809
scalar barabasi_100nodes_network.node[9].core_layer 	slots_sent[face$o[1]->client[9]] 	17963500
scalar barabasi_100nodes_network.node[9].core_layer 	slots_sent[face$o[2]->node[5]] 	0
scalar barabasi_100nodes_network.node[9].content_store 	p_hit[9] 	0.76725582431041
scalar barabasi_100nodes_network.node[9].content_store 	hits[9] 	137826
scalar barabasi_100nodes_network.node[9].content_store 	misses[9] 	41809
scalar barabasi_100nodes_network.node[9].content_store 	decision_yes[9] 	41809
scalar barabasi_100nodes_network.node[9].content_store 	decision_no[9] 	0
scalar barabasi_100nodes_network.node[9].content_store 	decision_ratio[9] 	1
scalar barabasi_100nodes_network.node[10].core_layer 	interests[10] 	222128
scalar barabasi_100nodes_network.node[10].core_layer 	data[10] 	78732
scalar barabasi_100nodes_network.node[10].core_layer 	slots_sent[face$o[1]->client[10]] 	18001800
scalar barabasi_100nodes_network.node[10].core_layer 	slots_sent[face$o[2]->node[0]] 	0
scalar barabasi_100nodes_network.node[10].core_layer 	slots_sent[face$o[3]->node[71]] 	4211000
scalar barabasi_100nodes_network.node[10].content_store 	p_hit[10] 	0.64555571562342
scalar barabasi_100nodes_network.node[10].content_store 	hits[10] 	143396
scalar barabasi_100nodes_network.node[10].content_store 	misses[10] 	78732
scalar barabasi_100nodes_network.node[10].content_store 	decision_yes[10] 	78732
scalar barabasi_100nodes_network.node[10].content_store 	decision_no[10] 	0
scalar barabasi_100nodes_network.node[10].content_store 	decision_ratio[10] 	1
scalar barabasi_100nodes_network.node[11].core_layer 	interests[11] 	180687
scalar barabasi_100nodes_network.node[11].core_layer 	data[11] 	42459
scalar barabasi_100nodes_network.node[11].core_layer 	slots_sent[face$o[1]->client[11]] 	18068700
scalar barabasi_100nodes_network.node[11].core_layer 	slots_sent[face$o[2]->node[0]] 	0
scalar barabasi_100nodes_network.node[11].content_store 	p_hit[11] 	0.76501353168739
scalar barabasi_100nodes_network.node[11].content_store 	hits[11] 	138228
scalar barabasi_100nodes_network.node[11].content_store 	misses[11] 	42459
scalar barabasi_100nodes_network.node[11].content_store 	decision_yes[11] 	42459
scalar barabasi_100nodes_network.node[11].content_store 	decision_no[11] 	0
scalar barabasi_100nodes_network.node[11].content_store 	decision_ratio[11] 	1
scalar barabasi_100nodes_network.node[12].core_layer 	interests[12] 	179981
scalar barabasi_100nodes_network.node[12].core_layer 	repo_load[12] 	49249
scalar barabasi_100nodes_network.node[12].core_layer 	data[12] 	29781
scalar barabasi_100nodes_network.node[12].core_layer 	slots_sent[face$o[1]->client[12]] 	17998100
scalar barabasi_100nodes_network.node[12].core_layer 	slots_sent[face$o[2]->node[8]] 	0
scalar barabasi_100nodes_network.node[12].content_store 	p_hit[12] 	0.5608980947989
scalar barabasi_100nodes_network.node[12].content_store 	hits[12] 	100951
scalar barabasi_100nodes_network.node[12].content_store 	misses[12] 	79030
scalar barabasi_100nodes_network.node[12].content_store 	decision_yes[12] 	29781
scalar barabasi_100nodes_network.node[12].content_store 	decision_no[12] 	49249
scalar barabasi_100nodes_network.node[12].content_store 	decision_ratio[12] 	0.37683158294319
scalar barabasi_100nodes_network.node[13].core_layer 	interests[13] 	336050
scalar barabasi_100nodes_network.node[13].core_layer 	data[13] 	179030
scalar barabasi_100nodes_network.node[13].core_layer 	slots_sent[face$o[1]->client[13]] 	17993000
scalar barabasi_100nodes_network.node[13].core_layer 	slots_sent[face$o[2]->node[2]] 	0
scalar barabasi_100nodes_network.node[13].core_layer 	slots_sent[face$o[3]->node[67]] 	4196900
scalar barabasi_100nodes_network.node[13].core_layer 	slots_sent[face$o[4]->node[78]] 	11415100
scalar barabasi_100nodes_network.node[13].content_store 	p_hit[13] 	0.46725189703913
scalar barabasi_100nodes_network.node[13].content_store 	hits[13] 	157020
scalar barabasi_100nodes_network.node[13].content_store 	misses[13] 	179030
scalar barabasi_100nodes_network.node[13].content_store 	decision_yes[13] 	179030
scalar barabasi_100nodes_network.node[13].content_store 	decision_no[13] 	0
scalar barabasi_100nodes_network.node[13].content_store 	decision_ratio[13] 	1
scalar barabasi_100nodes_network.node[14].core_layer 	interests[14] 	179845
scalar barabasi_100nodes_network.node[14].core_layer 	data[14] 	42149
scalar barabasi_100nodes_network.node[14].core_layer 	slots_sent[face$o[1]->client[14]] 	17984500
scalar barabasi_100nodes_network.node[14].core_layer 	slots_sent[face$o[2]->node[8]] 	0
scalar barabasi_100nodes_network.node[14].content_store 	p_hit[14] 	0.76563707637132
scalar barabasi_100nodes_network.node[14].content_store 	hits[14] 	137696
scalar barabasi_100nodes_network.node[14].content_store 	misses[14] 	42149
scalar barabasi_100nodes_network.node[14].content_store 	decision_yes[14] 	42149
scalar barabasi_100nodes_network.node[14].content_store 	decision_no[14] 	0
scalar barabasi_100nodes_network.node[14].content_store 	decision_ratio[14] 	1
scalar barabasi_100nodes_network.node[15].core_layer 	interests[15] 	263183
scalar barabasi_100nodes_network.node[15].core_layer 	data[15] 	113370
scalar barabasi_100nodes_network.node[15].core_layer 	slots_sent[face$o[1]->client[15]] 	17925100
scalar barabasi_100nodes_network.node[15].core_layer 	slots_sent[face$o[2]->node[0]] 	0
scalar barabasi_100nodes_network.node[15].core_layer 	slots_sent[face$o[3]->node[40]] 	4180500
scalar barabasi_100nodes_network.node[15].core_layer 	slots_sent[face$o[4]->node[56]] 	4212700
scalar barabasi_100nodes_network.node[15].content_store 	p_hit[15] 	0.56923509497194
scalar barabasi_100nodes_network.node[15].content_store 	hits[15] 	149813
scalar barabasi_100nodes_network.node[15].content_store 	misses[15] 	113370
scalar barabasi_100nodes_network.node[15].content_store 	decision_yes[15] 	113370
scalar barabasi_100nodes_network.node[15].content_store 	decision_no[15] 	0
scalar barabasi_100nodes_network.node[15].content_store 	decision_ratio[15] 	1
scalar barabasi_100nodes_network.node[16].core_layer 	interests[16] 	1066086
scalar barabasi_100nodes_network.node[16].core_layer 	repo_load[16] 	767125
scalar barabasi_100nodes_network.node[16].core_layer 	data[16] 	172922
scalar barabasi_100nodes_network.node[16].core_layer 	slots_sent[face$o[1]->client[16]] 	18049800
scalar barabasi_100nodes_network.node[16].core_layer 	slots_sent[face$o[2]->node[2]] 	66193400
scalar barabasi_100nodes_network.node[16].core_layer 	slots_sent[face$o[3]->node[19]] 	18132400
scalar barabasi_100nodes_network.node[16].core_layer 	slots_sent[face$o[4]->node[20]] 	4233000
scalar barabasi_100nodes_network.node[16].content_store 	p_hit[16] 	0.11822592173615
scalar barabasi_100nodes_network.node[16].content_store 	hits[16] 	126039
scalar barabasi_100nodes_network.node[16].content_store 	misses[16] 	940047
scalar barabasi_100nodes_network.node[16].content_store 	decision_yes[16] 	172922
scalar barabasi_100nodes_network.node[16].content_store 	decision_no[16] 	767125
scalar barabasi_100nodes_network.node[16].content_store 	decision_ratio[16] 	0.18395037694924
scalar barabasi_100nodes_network.node[17].core_layer 	interests[17] 	180886
scalar barabasi_100nodes_network.node[17].core_layer 	data[17] 	42551
scalar barabasi_100nodes_network.node[17].core_layer 	slots_sent[face$o[1]->client[17]] 	18088600
scalar barabasi_100nodes_network.node[17].core_layer 	slots_sent[face$o[2]->node[8]] 	0
scalar barabasi_100nodes_network.node[17].content_store 	p_hit[17] 	0.764763442168
scalar barabasi_100nodes_network.node[17].content_store 	hits[17] 	138335
scalar barabasi_100nodes_network.node[17].content_store 	misses[17] 	42551
scalar barabasi_100nodes_network.node[17].content_store 	decision_yes[17] 	42551
scalar barabasi_100nodes_network.node[17].content_store 	decision_no[17] 	0
scalar barabasi_100nodes_network.node[17].content_store 	decision_ratio[17] 	1
scalar barabasi_100nodes_network.node[18].core_layer 	interests[18] 	293044
scalar barabasi_100nodes_network.node[18].core_layer 	data[18] 	136143
scalar barabasi_100nodes_network.node[18].core_layer 	slots_sent[face$o[1]->client[18]] 	17878300
scalar barabasi_100nodes_network.node[18].core_layer 	slots_sent[face$o[2]->node[2]] 	0
scalar barabasi_100nodes_network.node[18].core_layer 	slots_sent[face$o[3]->node[53]] 	4189500
scalar barabasi_100nodes_network.node[18].core_layer 	slots_sent[face$o[4]->node[68]] 	3014400
scalar barabasi_100nodes_network.node[18].core_layer 	slots_sent[face$o[5]->node[72]] 	4222200
scalar barabasi_100nodes_network.node[18].content_store 	p_hit[18] 	0.5354178894637
scalar barabasi_100nodes_network.node[18].content_store 	hits[18] 	156901
scalar barabasi_100nodes_network.node[18].content_store 	misses[18] 	136143
scalar barabasi_100nodes_network.node[18].content_store 	decision_yes[18] 	136143
scalar barabasi_100nodes_network.node[18].content_store 	decision_no[18] 	0
scalar barabasi_100nodes_network.node[18].content_store 	decision_ratio[18] 	1
scalar barabasi_100nodes_network.node[19].core_layer 	interests[19] 	349738
scalar barabasi_100nodes_network.node[19].core_layer 	data[19] 	181324
scalar barabasi_100nodes_network.node[19].core_layer 	slots_sent[face$o[1]->client[19]] 	18064000
scalar barabasi_100nodes_network.node[19].core_layer 	slots_sent[face$o[2]->node[16]] 	0
scalar barabasi_100nodes_network.node[19].core_layer 	slots_sent[face$o[3]->node[63]] 	4211800
scalar barabasi_100nodes_network.node[19].core_layer 	slots_sent[face$o[4]->node[70]] 	4257800
scalar barabasi_100nodes_network.node[19].core_layer 	slots_sent[face$o[5]->node[80]] 	4221800
scalar barabasi_100nodes_network.node[19].core_layer 	slots_sent[face$o[6]->node[89]] 	4218400
scalar barabasi_100nodes_network.node[19].content_store 	p_hit[19] 	0.48154332671886
scalar barabasi_100nodes_network.node[19].content_store 	hits[19] 	168414
scalar barabasi_100nodes_network.node[19].content_store 	misses[19] 	181324
scalar barabasi_100nodes_network.node[19].content_store 	decision_yes[19] 	181324
scalar barabasi_100nodes_network.node[19].content_store 	decision_no[19] 	0
scalar barabasi_100nodes_network.node[19].content_store 	decision_ratio[19] 	1
scalar barabasi_100nodes_network.node[20].core_layer 	interests[20] 	180234
scalar barabasi_100nodes_network.node[20].core_layer 	data[20] 	42330
scalar barabasi_100nodes_network.node[20].core_layer 	slots_sent[face$o[1]->client[20]] 	18023400
scalar barabasi_100nodes_network.node[20].core_layer 	slots_sent[face$o[2]->node[16]] 	0
scalar barabasi_100nodes_network.node[20].content_store 	p_hit[20] 	0.76513865308432
scalar barabasi_100nodes_network.node[20].content_store 	hits[20] 	137904
scalar barabasi_100nodes_network.node[20].content_store 	misses[20] 	42330
scalar barabasi_100nodes_network.node[20].content_store 	decision_yes[20] 	42330
scalar barabasi_100nodes_network.node[20].content_store 	decision_no[20] 	0
scalar barabasi_100nodes_network.node[20].content_store 	decision_ratio[20] 	1
scalar barabasi_100nodes_network.node[21].core_layer 	interests[21] 	263867
scalar barabasi_100nodes_network.node[21].core_layer 	data[21] 	113716
scalar barabasi_100nodes_network.node[21].core_layer 	slots_sent[face$o[1]->client[21]] 	17956000
scalar barabasi_100nodes_network.node[21].core_layer 	slots_sent[face$o[2]->node[0]] 	0
scalar barabasi_100nodes_network.node[21].core_layer 	slots_sent[face$o[3]->node[24]] 	4233900
scalar barabasi_100nodes_network.node[21].core_layer 	slots_sent[face$o[4]->node[57]] 	4196800
scalar barabasi_100nodes_network.node[21].content_store 	p_hit[21] 	0.56904046356687
scalar barabasi_100nodes_network.node[21].content_store 	hits[21] 	150151
scalar barabasi_100nodes_network.node[21].content_store 	misses[21] 	113716
scalar barabasi_100nodes_network.node[21].content_store 	decision_yes[21] 	113716
scalar barabasi_100nodes_network.node[21].content_store 	decision_no[21] 	0
scalar barabasi_100nodes_network.node[21].content_store 	decision_ratio[21] 	1
scalar barabasi_100nodes_network.node[22].core_layer 	interests[22] 	180104
scalar barabasi_100nodes_network.node[22].core_layer 	data[22] 	42163
scalar barabasi_100nodes_network.node[22].core_layer 	slots_sent[face$o[1]->client[22]] 	18010400
scalar barabasi_100nodes_network.node[22].core_layer 	slots_sent[face$o[2]->node[0]] 	0
scalar barabasi_100nodes_network.node[22].content_store 	p_hit[22] 	0.76589637098565
scalar barabasi_100nodes_network.node[22].content_store 	hits[22] 	137941
scalar barabasi_100nodes_network.node[22].content_store 	misses[22] 	42163
scalar barabasi_100nodes_network.node[22].content_store 	decision_yes[22] 	42163
scalar barabasi_100nodes_network.node[22].content_store 	decision_no[22] 	0
scalar barabasi_100nodes_network.node[22].content_store 	decision_ratio[22] 	1
scalar barabasi_100nodes_network.node[23].core_layer 	interests[23] 	929158
scalar barabasi_100nodes_network.node[23].core_layer 	data[23] 	687513
scalar barabasi_100nodes_network.node[23].core_layer 	slots_sent[face$o[1]->client[23]] 	18033000
scalar barabasi_100nodes_network.node[23].core_layer 	slots_sent[face$o[2]->node[7]] 	50026400
scalar barabasi_100nodes_network.node[23].core_layer 	slots_sent[face$o[3]->node[46]] 	7900900
scalar barabasi_100nodes_network.node[23].core_layer 	slots_sent[face$o[4]->node[47]] 	4231300
scalar barabasi_100nodes_network.node[23].core_layer 	slots_sent[face$o[5]->node[51]] 	4242600
scalar barabasi_100nodes_network.node[23].core_layer 	slots_sent[face$o[6]->node[83]] 	4245200
scalar barabasi_100nodes_network.node[23].core_layer 	slots_sent[face$o[7]->node[86]] 	4236400
scalar barabasi_100nodes_network.node[23].content_store 	p_hit[23] 	0.26006879346677
scalar barabasi_100nodes_network.node[23].content_store 	hits[23] 	241645
scalar barabasi_100nodes_network.node[23].content_store 	misses[23] 	687513
scalar barabasi_100nodes_network.node[23].content_store 	decision_yes[23] 	687513
scalar barabasi_100nodes_network.node[23].content_store 	decision_no[23] 	0
scalar barabasi_100nodes_network.node[23].content_store 	decision_ratio[23] 	1
scalar barabasi_100nodes_network.node[24].core_layer 	interests[24] 	179875
scalar barabasi_100nodes_network.node[24].core_layer 	data[24] 	42339
scalar barabasi_100nodes_network.node[24].core_layer 	slots_sent[face$o[1]->client[24]] 	17987500
scalar barabasi_100nodes_network.node[24].core_layer 	slots_sent[face$o[2]->node[21]] 	0
scalar barabasi_100nodes_network.node[24].content_store 	p_hit[24] 	0.76461987491313
scalar barabasi_100nodes_network.node[24].content_store 	hits[24] 	137536
scalar barabasi_100nodes_network.node[24].content_store 	misses[24] 	42339
scalar barabasi_100nodes_network.node[24].content_store 	decision_yes[24] 	42339
scalar barabasi_100nodes_network.node[24].content_store 	decision_no[24] 	0
scalar barabasi_100nodes_network.node[24].content_store 	decision_ratio[24] 	1
scalar barabasi_100nodes_network.node[25].core_layer 	interests[25] 	222560
scalar barabasi_100nodes_network.node[25].core_layer 	data[25] 	79503
scalar barabasi_100nodes_network.node[25].core_layer 	slots_sent[face$o[1]->client[25]] 	17981100
scalar barabasi_100nodes_network.node[25].core_layer 	slots_sent[face$o[2]->node[2]] 	0
scalar barabasi_100nodes_network.node[25].core_layer 	slots_sent[face$o[3]->node[38]] 	4274900
scalar barabasi_100nodes_network.node[25].content_store 	p_hit[25] 	0.6427794751977
scalar barabasi_100nodes_network.node[25].content_store 	hits[25] 	143057
scalar barabasi_100nodes_network.node[25].content_store 	misses[25] 	79503
scalar barabasi_100nodes_network.node[25].content_store 	decision_yes[25] 	79503
scalar barabasi_100nodes_network.node[25].content_store 	decision_no[25] 	0
scalar barabasi_100nodes_network.node[25].content_store 	decision_ratio[25] 	1
scalar barabasi_100nodes_network.node[26].core_layer 	interests[26] 	289001
scalar barabasi_100nodes_network.node[26].core_layer 	data[26] 	135835
scalar barabasi_100nodes_network.node[26].core_layer 	slots_sent[face$o[1]->client[26]] 	18030000
scalar barabasi_100nodes_network.node[26].core_layer 	slots_sent[face$o[2]->node[2]] 	0
scalar barabasi_100nodes_network.node[26].core_layer 	slots_sent[face$o[3]->node[77]] 	7880000
scalar barabasi_100nodes_network.node[26].core_layer 	slots_sent[face$o[4]->node[91]] 	2990100
scalar barabasi_100nodes_network.node[26].content_store 	p_hit[26] 	0.52998432531375
scalar barabasi_100nodes_network.node[26].content_store 	hits[26] 	153166
scalar barabasi_100nodes_network.node[26].content_store 	misses[26] 	135835
scalar barabasi_100nodes_network.node[26].content_store 	decision_yes[26] 	135835
scalar barabasi_100nodes_network.node[26].content_store 	decision_no[26] 	0
scalar barabasi_100nodes_network.node[26].content_store 	decision_ratio[26] 	1
scalar barabasi_100nodes_network.node[27].core_layer 	interests[27] 	221778
scalar barabasi_100nodes_network.node[27].core_layer 	data[27] 	78604
scalar barabasi_100nodes_network.node[27].core_layer 	slots_sent[face$o[1]->client[27]] 	17989700
scalar barabasi_100nodes_network.node[27].core_layer 	slots_sent[face$o[2]->node[4]] 	0
scalar barabasi_100nodes_network.node[27].core_layer 	slots_sent[face$o[3]->node[99]] 	4188100
scalar barabasi_100nodes_network.node[27].content_store 	p_hit[27] 	0.64557350142936
scalar barabasi_100nodes_network.node[27].content_store 	hits[27] 	143174
scalar barabasi_100nodes_network.node[27].content_store 	misses[27] 	78604
scalar barabasi_100nodes_network.node[27].content_store 	decision_yes[27] 	78604
scalar barabasi_100nodes_network.node[27].content_store 	decision_no[27] 	0
scalar barabasi_100nodes_network.node[27].content_store 	decision_ratio[27] 	1
scalar barabasi_100nodes_network.node[28].core_layer 	interests[28] 	180214
scalar barabasi_100nodes_network.node[28].core_layer 	data[28] 	42248
scalar barabasi_100nodes_network.node[28].core_layer 	slots_sent[face$o[1]->client[28]] 	18021400
scalar barabasi_100nodes_network.node[28].core_layer 	slots_sent[face$o[2]->node[0]] 	0
scalar barabasi_100nodes_network.node[28].content_store 	p_hit[28] 	0.76556760296092
scalar barabasi_100nodes_network.node[28].content_store 	hits[28] 	137966
scalar barabasi_100nodes_network.node[28].content_store 	misses[28] 	42248
scalar barabasi_100nodes_network.node[28].content_store 	decision_yes[28] 	42248
scalar barabasi_100nodes_network.node[28].content_store 	decision_no[28] 	0
scalar barabasi_100nodes_network.node[28].content_store 	decision_ratio[28] 	1
scalar barabasi_100nodes_network.node[29].core_layer 	interests[29] 	179230
scalar barabasi_100nodes_network.node[29].core_layer 	data[29] 	41980
scalar barabasi_100nodes_network.node[29].core_layer 	slots_sent[face$o[1]->client[29]] 	17923000
scalar barabasi_100nodes_network.node[29].core_layer 	slots_sent[face$o[2]->node[2]] 	0
scalar barabasi_100nodes_network.node[29].content_store 	p_hit[29] 	0.76577581878034
scalar barabasi_100nodes_network.node[29].content_store 	hits[29] 	137250
scalar barabasi_100nodes_network.node[29].content_store 	misses[29] 	41980
scalar barabasi_100nodes_network.node[29].content_store 	decision_yes[29] 	41980
scalar barabasi_100nodes_network.node[29].content_store 	decision_no[29] 	0
scalar barabasi_100nodes_network.node[29].content_store 	decision_ratio[29] 	1
scalar barabasi_100nodes_network.node[30].core_layer 	interests[30] 	209438
scalar barabasi_100nodes_network.node[30].core_layer 	repo_load[30] 	48477
scalar barabasi_100nodes_network.node[30].core_layer 	data[30] 	42312
scalar barabasi_100nodes_network.node[30].core_layer 	slots_sent[face$o[1]->client[30]] 	17949300
scalar barabasi_100nodes_network.node[30].core_layer 	slots_sent[face$o[2]->node[4]] 	0
scalar barabasi_100nodes_network.node[30].core_layer 	slots_sent[face$o[3]->node[88]] 	2994500
scalar barabasi_100nodes_network.node[30].content_store 	p_hit[30] 	0.5665113303221
scalar barabasi_100nodes_network.node[30].content_store 	hits[30] 	118649
scalar barabasi_100nodes_network.node[30].content_store 	misses[30] 	90789
scalar barabasi_100nodes_network.node[30].content_store 	decision_yes[30] 	42312
scalar barabasi_100nodes_network.node[30].content_store 	decision_no[30] 	48477
scalar barabasi_100nodes_network.node[30].content_store 	decision_ratio[30] 	0.46604764894426
scalar barabasi_100nodes_network.node[31].core_layer 	interests[31] 	295385
scalar barabasi_100nodes_network.node[31].core_layer 	data[31] 	148413
scalar barabasi_100nodes_network.node[31].core_layer 	slots_sent[face$o[1]->client[31]] 	18109100
scalar barabasi_100nodes_network.node[31].core_layer 	slots_sent[face$o[2]->node[7]] 	0
scalar barabasi_100nodes_network.node[31].core_layer 	slots_sent[face$o[3]->node[65]] 	11429400
scalar barabasi_100nodes_network.node[31].content_store 	p_hit[31] 	0.49756081046769
scalar barabasi_100nodes_network.node[31].content_store 	hits[31] 	146972
scalar barabasi_100nodes_network.node[31].content_store 	misses[31] 	148413
scalar barabasi_100nodes_network.node[31].content_store 	decision_yes[31] 	148413
scalar barabasi_100nodes_network.node[31].content_store 	decision_no[31] 	0
scalar barabasi_100nodes_network.node[31].content_store 	decision_ratio[31] 	1
scalar barabasi_100nodes_network.node[32].core_layer 	interests[32] 	253159
scalar barabasi_100nodes_network.node[32].core_layer 	data[32] 	103326
scalar barabasi_100nodes_network.node[32].core_layer 	slots_sent[face$o[1]->client[32]] 	18070800
scalar barabasi_100nodes_network.node[32].core_layer 	slots_sent[face$o[2]->node[2]] 	0
scalar barabasi_100nodes_network.node[32].core_layer 	slots_sent[face$o[3]->node[43]] 	3008500
scalar barabasi_100nodes_network.node[32].core_layer 	slots_sent[face$o[4]->node[64]] 	4236600
scalar barabasi_100nodes_network.node[32].content_store 	p_hit[32] 	0.59185334118084
scalar barabasi_100nodes_network.node[32].content_store 	hits[32] 	149833
scalar barabasi_100nodes_network.node[32].content_store 	misses[32] 	103326
scalar barabasi_100nodes_network.node[32].content_store 	decision_yes[32] 	103326
scalar barabasi_100nodes_network.node[32].content_store 	decision_no[32] 	0
scalar barabasi_100nodes_network.node[32].content_store 	decision_ratio[32] 	1
scalar barabasi_100nodes_network.node[33].core_layer 	interests[33] 	179503
scalar barabasi_100nodes_network.node[33].core_layer 	data[33] 	41845
scalar barabasi_100nodes_network.node[33].core_layer 	slots_sent[face$o[1]->client[33]] 	17950300
scalar barabasi_100nodes_network.node[33].core_layer 	slots_sent[face$o[2]->node[2]] 	0
scalar barabasi_100nodes_network.node[33].content_store 	p_hit[33] 	0.76688411892837
scalar barabasi_100nodes_network.node[33].content_store 	hits[33] 	137658
scalar barabasi_100nodes_network.node[33].content_store 	misses[33] 	41845
scalar barabasi_100nodes_network.node[33].content_store 	decision_yes[33] 	41845
scalar barabasi_100nodes_network.node[33].content_store 	decision_no[33] 	0
scalar barabasi_100nodes_network.node[33].content_store 	decision_ratio[33] 	1
scalar barabasi_100nodes_network.node[34].core_layer 	interests[34] 	179588
scalar barabasi_100nodes_network.node[34].core_layer 	data[34] 	42056
scalar barabasi_100nodes_network.node[34].core_layer 	slots_sent[face$o[1]->client[34]] 	17958800
scalar barabasi_100nodes_network.node[34].core_layer 	slots_sent[face$o[2]->node[2]] 	0
scalar barabasi_100nodes_network.node[34].content_store 	p_hit[34] 	0.76581954250841
scalar barabasi_100nodes_network.node[34].content_store 	hits[34] 	137532
scalar barabasi_100nodes_network.node[34].content_store 	misses[34] 	42056
scalar barabasi_100nodes_network.node[34].content_store 	decision_yes[34] 	42056
scalar barabasi_100nodes_network.node[34].content_store 	decision_no[34] 	0
scalar barabasi_100nodes_network.node[34].content_store 	decision_ratio[34] 	1
scalar barabasi_100nodes_network.node[35].core_layer 	interests[35] 	221964
scalar barabasi_100nodes_network.node[35].core_layer 	data[35] 	78982
scalar barabasi_100nodes_network.node[35].core_layer 	slots_sent[face$o[1]->client[35]] 	17973300
scalar barabasi_100nodes_network.node[35].core_layer 	slots_sent[face$o[2]->node[5]] 	0
scalar barabasi_100nodes_network.node[35].core_layer 	slots_sent[face$o[3]->node[50]] 	4223100
scalar barabasi_100nodes_network.node[35].content_store 	p_hit[35] 	0.64416752266133
scalar barabasi_100nodes_network.node[35].content_store 	hits[35] 	142982
scalar barabasi_100nodes_network.node[35].content_store 	misses[35] 	78982
scalar barabasi_100nodes_network.node[35].content_store 	decision_yes[35] 	78982
scalar barabasi_100nodes_network.node[35].content_store 	decision_no[35] 	0
scalar barabasi_100nodes_network.node[35].content_store 	decision_ratio[35] 	1
scalar barabasi_100nodes_network.node[36].core_layer 	interests[36] 	222301
scalar barabasi_100nodes_network.node[36].core_layer 	data[36] 	79028
scalar barabasi_100nodes_network.node[36].core_layer 	slots_sent[face$o[1]->client[36]] 	18020200
scalar barabasi_100nodes_network.node[36].core_layer 	slots_sent[face$o[2]->node[2]] 	0
scalar barabasi_100nodes_network.node[36].core_layer 	slots_sent[face$o[3]->node[75]] 	4209900
scalar barabasi_100nodes_network.node[36].content_store 	p_hit[36] 	0.64450002474123
scalar barabasi_100nodes_network.node[36].content_store 	hits[36] 	143273
scalar barabasi_100nodes_network.node[36].content_store 	misses[36] 	79028
scalar barabasi_100nodes_network.node[36].content_store 	decision_yes[36] 	79028
scalar barabasi_100nodes_network.node[36].content_store 	decision_no[36] 	0
scalar barabasi_100nodes_network.node[36].content_store 	decision_ratio[36] 	1
scalar barabasi_100nodes_network.node[37].core_layer 	interests[37] 	180449
scalar barabasi_100nodes_network.node[37].core_layer 	data[37] 	42300
scalar barabasi_100nodes_network.node[37].core_layer 	slots_sent[face$o[1]->client[37]] 	18044900
scalar barabasi_100nodes_network.node[37].core_layer 	slots_sent[face$o[2]->node[0]] 	0
scalar barabasi_100nodes_network.node[37].content_store 	p_hit[37] 	0.76558473585334
scalar barabasi_100nodes_network.node[37].content_store 	hits[37] 	138149
scalar barabasi_100nodes_network.node[37].content_store 	misses[37] 	42300
scalar barabasi_100nodes_network.node[37].content_store 	decision_yes[37] 	42300
scalar barabasi_100nodes_network.node[37].content_store 	decision_no[37] 	0
scalar barabasi_100nodes_network.node[37].content_store 	decision_ratio[37] 	1
scalar barabasi_100nodes_network.node[38].core_layer 	interests[38] 	180993
scalar barabasi_100nodes_network.node[38].core_layer 	data[38] 	42749
scalar barabasi_100nodes_network.node[38].core_layer 	slots_sent[face$o[1]->client[38]] 	18099300
scalar barabasi_100nodes_network.node[38].core_layer 	slots_sent[face$o[2]->node[25]] 	0
scalar barabasi_100nodes_network.node[38].content_store 	p_hit[38] 	0.76380854508185
scalar barabasi_100nodes_network.node[38].content_store 	hits[38] 	138244
scalar barabasi_100nodes_network.node[38].content_store 	misses[38] 	42749
scalar barabasi_100nodes_network.node[38].content_store 	decision_yes[38] 	42749
scalar barabasi_100nodes_network.node[38].content_store 	decision_no[38] 	0
scalar barabasi_100nodes_network.node[38].content_store 	decision_ratio[38] 	1
scalar barabasi_100nodes_network.node[39].core_layer 	interests[39] 	210467
scalar barabasi_100nodes_network.node[39].core_layer 	data[39] 	67676
scalar barabasi_100nodes_network.node[39].core_layer 	slots_sent[face$o[1]->client[39]] 	18020500
scalar barabasi_100nodes_network.node[39].core_layer 	slots_sent[face$o[2]->node[8]] 	0
scalar barabasi_100nodes_network.node[39].core_layer 	slots_sent[face$o[3]->node[60]] 	3026200
scalar barabasi_100nodes_network.node[39].content_store 	p_hit[39] 	0.6784484028375
scalar barabasi_100nodes_network.node[39].content_store 	hits[39] 	142791
scalar barabasi_100nodes_network.node[39].content_store 	misses[39] 	67676
scalar barabasi_100nodes_network.node[39].content_store 	decision_yes[39] 	67676
scalar barabasi_100nodes_network.node[39].content_store 	decision_no[39] 	0
scalar barabasi_100nodes_network.node[39].content_store 	decision_ratio[39] 	1
scalar barabasi_100nodes_network.node[40].core_layer 	interests[40] 	179531
scalar barabasi_100nodes_network.node[40].core_layer 	data[40] 	41805
scalar barabasi_100nodes_network.node[40].core_layer 	slots_sent[face$o[1]->client[40]] 	17953100
scalar barabasi_100nodes_network.node[40].core_layer 	slots_sent[face$o[2]->node[15]] 	0
scalar barabasi_100nodes_network.node[40].content_store 	p_hit[40] 	0.76714327887663
scalar barabasi_100nodes_network.node[40].content_store 	hits[40] 	137726
scalar barabasi_100nodes_network.node[40].content_store 	misses[40] 	41805
scalar barabasi_100nodes_network.node[40].content_store 	decision_yes[40] 	41805
scalar barabasi_100nodes_network.node[40].content_store 	decision_no[40] 	0
scalar barabasi_100nodes_network.node[40].content_store 	decision_ratio[40] 	1
scalar barabasi_100nodes_network.node[41].core_layer 	interests[41] 	1052210
scalar barabasi_100nodes_network.node[41].core_layer 	data[41] 	681135
scalar barabasi_100nodes_network.node[41].core_layer 	slots_sent[face$o[1]->client[41]] 	17993900
scalar barabasi_100nodes_network.node[41].core_layer 	slots_sent[face$o[2]->node[2]] 	63637100
scalar barabasi_100nodes_network.node[41].core_layer 	slots_sent[face$o[3]->node[42]] 	4224900
scalar barabasi_100nodes_network.node[41].core_layer 	slots_sent[face$o[4]->node[48]] 	3039500
scalar barabasi_100nodes_network.node[41].core_layer 	slots_sent[face$o[5]->node[54]] 	7927400
scalar barabasi_100nodes_network.node[41].core_layer 	slots_sent[face$o[6]->node[55]] 	4217600
scalar barabasi_100nodes_network.node[41].core_layer 	slots_sent[face$o[7]->node[69]] 	4180600
scalar barabasi_100nodes_network.node[41].content_store 	p_hit[41] 	0.35266249132778
scalar barabasi_100nodes_network.node[41].content_store 	hits[41] 	371075
scalar barabasi_100nodes_network.node[41].content_store 	misses[41] 	681135
scalar barabasi_100nodes_network.node[41].content_store 	decision_yes[41] 	681135
scalar barabasi_100nodes_network.node[41].content_store 	decision_no[41] 	0
scalar barabasi_100nodes_network.node[41].content_store 	decision_ratio[41] 	1
scalar barabasi_100nodes_network.node[42].core_layer 	interests[42] 	179801
scalar barabasi_100nodes_network.node[42].core_layer 	data[42] 	42249
scalar barabasi_100nodes_network.node[42].core_layer 	slots_sent[face$o[1]->client[42]] 	17980100
scalar barabasi_100nodes_network.node[42].core_layer 	slots_sent[face$o[2]->node[41]] 	0
scalar barabasi_100nodes_network.node[42].content_store 	p_hit[42] 	0.76502355381783
scalar barabasi_100nodes_network.node[42].content_store 	hits[42] 	137552
scalar barabasi_100nodes_network.node[42].content_store 	misses[42] 	42249
scalar barabasi_100nodes_network.node[42].content_store 	decision_yes[42] 	42249
scalar barabasi_100nodes_network.node[42].content_store 	decision_no[42] 	0
scalar barabasi_100nodes_network.node[42].content_store 	decision_ratio[42] 	1
scalar barabasi_100nodes_network.node[43].core_layer 	interests[43] 	180087
scalar barabasi_100nodes_network.node[43].core_layer 	repo_load[43] 	49177
scalar barabasi_100nodes_network.node[43].core_layer 	data[43] 	30085
scalar barabasi_100nodes_network.node[43].core_layer 	slots_sent[face$o[1]->client[43]] 	18008700
scalar barabasi_100nodes_network.node[43].core_layer 	slots_sent[face$o[2]->node[32]] 	0
scalar barabasi_100nodes_network.node[43].content_store 	p_hit[43] 	0.55986828588404
scalar barabasi_100nodes_network.node[43].content_store 	hits[43] 	100825
scalar barabasi_100nodes_network.node[43].content_store 	misses[43] 	79262
scalar barabasi_100nodes_network.node[43].content_store 	decision_yes[43] 	30085
scalar barabasi_100nodes_network.node[43].content_store 	decision_no[43] 	49177
scalar barabasi_100nodes_network.node[43].content_store 	decision_ratio[43] 	0.37956397769423
scalar barabasi_100nodes_network.node[44].core_layer 	interests[44] 	179556
scalar barabasi_100nodes_network.node[44].core_layer 	data[44] 	42043
scalar barabasi_100nodes_network.node[44].core_layer 	slots_sent[face$o[1]->client[44]] 	17955600
scalar barabasi_100nodes_network.node[44].core_layer 	slots_sent[face$o[2]->node[0]] 	0
scalar barabasi_100nodes_network.node[44].content_store 	p_hit[44] 	0.76585020829156
scalar barabasi_100nodes_network.node[44].content_store 	hits[44] 	137513
scalar barabasi_100nodes_network.node[44].content_store 	misses[44] 	42043
scalar barabasi_100nodes_network.node[44].content_store 	decision_yes[44] 	42043
scalar barabasi_100nodes_network.node[44].content_store 	decision_no[44] 	0
scalar barabasi_100nodes_network.node[44].content_store 	decision_ratio[44] 	1
scalar barabasi_100nodes_network.node[45].core_layer 	interests[45] 	179817
scalar barabasi_100nodes_network.node[45].core_layer 	repo_load[45] 	49456
scalar barabasi_100nodes_network.node[45].core_layer 	data[45] 	30113
scalar barabasi_100nodes_network.node[45].core_layer 	slots_sent[face$o[1]->client[45]] 	17981700
scalar barabasi_100nodes_network.node[45].core_layer 	slots_sent[face$o[2]->node[2]] 	0
scalar barabasi_100nodes_network.node[45].content_store 	p_hit[45] 	0.55750012512721
scalar barabasi_100nodes_network.node[45].content_store 	hits[45] 	100248
scalar barabasi_100nodes_network.node[45].content_store 	misses[45] 	79569
scalar barabasi_100nodes_network.node[45].content_store 	decision_yes[45] 	30113
scalar barabasi_100nodes_network.node[45].content_store 	decision_no[45] 	49456
scalar barabasi_100nodes_network.node[45].content_store 	decision_ratio[45] 	0.37845140695497
scalar barabasi_100nodes_network.node[46].core_layer 	interests[46] 	668235
scalar barabasi_100nodes_network.node[46].core_layer 	data[46] 	449399
scalar barabasi_100nodes_network.node[46].core_layer 	slots_sent[face$o[1]->client[46]] 	17954900
scalar barabasi_100nodes_network.node[46].core_layer 	slots_sent[face$o[2]->node[23]] 	45852400
scalar barabasi_100nodes_network.node[46].core_layer 	slots_sent[face$o[3]->node[82]] 	3016200
scalar barabasi_100nodes_network.node[46].content_store 	p_hit[46] 	0.32748359484313
scalar barabasi_100nodes_network.node[46].content_store 	hits[46] 	218836
scalar barabasi_100nodes_network.node[46].content_store 	misses[46] 	449399
scalar barabasi_100nodes_network.node[46].content_store 	decision_yes[46] 	449399
scalar barabasi_100nodes_network.node[46].content_store 	decision_no[46] 	0
scalar barabasi_100nodes_network.node[46].content_store 	decision_ratio[46] 	1
scalar barabasi_100nodes_network.node[47].core_layer 	interests[47] 	179277
scalar barabasi_100nodes_network.node[47].core_layer 	data[47] 	42313
scalar barabasi_100nodes_network.node[47].core_layer 	slots_sent[face$o[1]->client[47]] 	17927700
scalar barabasi_100nodes_network.node[47].core_layer 	slots_sent[face$o[2]->node[23]] 	0
scalar barabasi_100nodes_network.node[47].content_store 	p_hit[47] 	0.7639797631598
scalar barabasi_100nodes_network.node[47].content_store 	hits[47] 	136964
scalar barabasi_100nodes_network.node[47].content_store 	misses[47] 	42313
scalar barabasi_100nodes_network.node[47].content_store 	decision_yes[47] 	42313
scalar barabasi_100nodes_network.node[47].content_store 	decision_no[47] 	0
scalar barabasi_100nodes_network.node[47].content_store 	decision_ratio[47] 	1
scalar barabasi_100nodes_network.node[48].core_layer 	interests[48] 	644241
scalar barabasi_100nodes_network.node[48].core_layer 	repo_load[48] 	499609
scalar barabasi_100nodes_network.node[48].core_layer 	data[48] 	30395
scalar barabasi_100nodes_network.node[48].core_layer 	slots_sent[face$o[1]->client[48]] 	17981500
scalar barabasi_100nodes_network.node[48].core_layer 	slots_sent[face$o[2]->node[41]] 	46442600
scalar barabasi_100nodes_network.node[48].content_store 	p_hit[48] 	0.17732028852557
scalar barabasi_100nodes_network.node[48].content_store 	hits[48] 	114237
scalar barabasi_100nodes_network.node[48].content_store 	misses[48] 	530004
scalar barabasi_100nodes_network.node[48].content_store 	decision_yes[48] 	30395
scalar barabasi_100nodes_network.node[48].content_store 	decision_no[48] 	499609
scalar barabasi_100nodes_network.node[48].content_store 	decision_ratio[48] 	0.057348623783971
scalar barabasi_100nodes_network.node[49].core_layer 	interests[49] 	180073
scalar barabasi_100nodes_network.node[49].core_layer 	repo_load[49] 	38396
scalar barabasi_100nodes_network.node[49].core_layer 	data[49] 	29810
scalar barabasi_100nodes_network.node[49].core_layer 	slots_sent[face$o[1]->client[49]] 	18007300
scalar barabasi_100nodes_network.node[49].core_layer 	slots_sent[face$o[2]->node[7]] 	0
scalar barabasi_100nodes_network.node[49].content_store 	p_hit[49] 	0.62123138949204
scalar barabasi_100nodes_network.node[49].content_store 	hits[49] 	111867
scalar barabasi_100nodes_network.node[49].content_store 	misses[49] 	68206
scalar barabasi_100nodes_network.node[49].content_store 	decision_yes[49] 	29810
scalar barabasi_100nodes_network.node[49].content_store 	decision_no[49] 	38396
scalar barabasi_100nodes_network.node[49].content_store 	decision_ratio[49] 	0.43705832331466
scalar barabasi_100nodes_network.node[50].core_layer 	interests[50] 	180409
scalar barabasi_100nodes_network.node[50].core_layer 	data[50] 	42231
scalar barabasi_100nodes_network.node[50].core_layer 	slots_sent[face$o[1]->client[50]] 	18040900
scalar barabasi_100nodes_network.node[50].core_layer 	slots_sent[face$o[2]->node[35]] 	0
scalar barabasi_100nodes_network.node[50].content_store 	p_hit[50] 	0.76591522595879
scalar barabasi_100nodes_network.node[50].content_store 	hits[50] 	138178
scalar barabasi_100nodes_network.node[50].content_store 	misses[50] 	42231
scalar barabasi_100nodes_network.node[50].content_store 	decision_yes[50] 	42231
scalar barabasi_100nodes_network.node[50].content_store 	decision_no[50] 	0
scalar barabasi_100nodes_network.node[50].content_store 	decision_ratio[50] 	1
[...]
scalar barabasi_100nodes_network.client[9] 	hdistance[9].real 	0.87855373396054
scalar barabasi_100nodes_network.client[9] 	downloads[9].real 	179635
scalar barabasi_100nodes_network.client[9] 	avg_time[9].real 	0
scalar barabasi_100nodes_network.client[10] 	hdistance[10].real 	0.8059805130598
scalar barabasi_100nodes_network.client[10] 	downloads[10].real 	180018
scalar barabasi_100nodes_network.client[10] 	avg_time[10].real 	0
scalar barabasi_100nodes_network.client[11] 	hdistance[11].real 	0.78029409974154
scalar barabasi_100nodes_network.client[11] 	downloads[11].real 	180687
scalar barabasi_100nodes_network.client[11] 	avg_time[11].real 	0
scalar barabasi_100nodes_network.client[12] 	hdistance[12].real 	0.84898961557053
scalar barabasi_100nodes_network.client[12] 	downloads[12].real 	179981
scalar barabasi_100nodes_network.client[12] 	avg_time[12].real 	0
scalar barabasi_100nodes_network.client[13] 	hdistance[13].real 	0.78185405435447
scalar barabasi_100nodes_network.client[13] 	downloads[13].real 	179930
scalar barabasi_100nodes_network.client[13] 	avg_time[13].real 	0
scalar barabasi_100nodes_network.client[14] 	hdistance[14].real 	0.80807361894965
scalar barabasi_100nodes_network.client[14] 	downloads[14].real 	179845
scalar barabasi_100nodes_network.client[14] 	avg_time[14].real 	0
scalar barabasi_100nodes_network.client[15] 	hdistance[15].real 	0.83747371004903
scalar barabasi_100nodes_network.client[15] 	downloads[15].real 	179251
scalar barabasi_100nodes_network.client[15] 	avg_time[15].real 	0
scalar barabasi_100nodes_network.client[16] 	hdistance[16].real 	0.83321698855388
scalar barabasi_100nodes_network.client[16] 	downloads[16].real 	180498
scalar barabasi_100nodes_network.client[16] 	avg_time[16].real 	0
scalar barabasi_100nodes_network.client[17] 	hdistance[17].real 	0.81511006932543
scalar barabasi_100nodes_network.client[17] 	downloads[17].real 	180886
scalar barabasi_100nodes_network.client[17] 	avg_time[17].real 	0
scalar barabasi_100nodes_network.client[18] 	hdistance[18].real 	0.7572252395362
scalar barabasi_100nodes_network.client[18] 	downloads[18].real 	178783
scalar barabasi_100nodes_network.client[18] 	avg_time[18].real 	0
scalar barabasi_100nodes_network.client[19] 	hdistance[19].real 	0.85813773250664
scalar barabasi_100nodes_network.client[19] 	downloads[19].real 	180640
scalar barabasi_100nodes_network.client[19] 	avg_time[19].real 	0
scalar barabasi_100nodes_network.client[20] 	hdistance[20].real 	0.71798883673447
scalar barabasi_100nodes_network.client[20] 	downloads[20].real 	180234
scalar barabasi_100nodes_network.client[20] 	avg_time[20].real 	0
scalar barabasi_100nodes_network.client[21] 	hdistance[21].real 	0.84112274448653
scalar barabasi_100nodes_network.client[21] 	downloads[21].real 	179560
scalar barabasi_100nodes_network.client[21] 	avg_time[21].real 	0
scalar barabasi_100nodes_network.client[22] 	hdistance[22].real 	0.780204770577
scalar barabasi_100nodes_network.client[22] 	downloads[22].real 	180104
scalar barabasi_100nodes_network.client[22] 	avg_time[22].real 	0
scalar barabasi_100nodes_network.client[23] 	hdistance[23].real 	1.0120057672046
scalar barabasi_100nodes_network.client[23] 	downloads[23].real 	180330
scalar barabasi_100nodes_network.client[23] 	avg_time[23].real 	0
scalar barabasi_100nodes_network.client[24] 	hdistance[24].real 	0.88802223766505
scalar barabasi_100nodes_network.client[24] 	downloads[24].real 	179875
scalar barabasi_100nodes_network.client[24] 	avg_time[24].real 	0
scalar barabasi_100nodes_network.client[25] 	hdistance[25].real 	0.72586215526304
scalar barabasi_100nodes_network.client[25] 	downloads[25].real 	179811
scalar barabasi_100nodes_network.client[25] 	avg_time[25].real 	0
scalar barabasi_100nodes_network.client[26] 	hdistance[26].real 	0.76934553521907
scalar barabasi_100nodes_network.client[26] 	downloads[26].real 	180300
scalar barabasi_100nodes_network.client[26] 	avg_time[26].real 	0
scalar barabasi_100nodes_network.client[27] 	hdistance[27].real 	0.74971789412831
scalar barabasi_100nodes_network.client[27] 	downloads[27].real 	179897
scalar barabasi_100nodes_network.client[27] 	avg_time[27].real 	0
scalar barabasi_100nodes_network.client[28] 	hdistance[28].real 	0.77930127515065
scalar barabasi_100nodes_network.client[28] 	downloads[28].real 	180214
scalar barabasi_100nodes_network.client[28] 	avg_time[28].real 	0
scalar barabasi_100nodes_network.client[29] 	hdistance[29].real 	0.69971544942253
scalar barabasi_100nodes_network.client[29] 	downloads[29].real 	179230
scalar barabasi_100nodes_network.client[29] 	avg_time[29].real 	0
scalar barabasi_100nodes_network.client[30] 	hdistance[30].real 	0.69219412456198
scalar barabasi_100nodes_network.client[30] 	downloads[30].real 	179493
scalar barabasi_100nodes_network.client[30] 	avg_time[30].real 	0
scalar barabasi_100nodes_network.client[31] 	hdistance[31].real 	0.8586290870336
scalar barabasi_100nodes_network.client[31] 	downloads[31].real 	181091
scalar barabasi_100nodes_network.client[31] 	avg_time[31].real 	0
scalar barabasi_100nodes_network.client[32] 	hdistance[32].real 	0.7522024481484
scalar barabasi_100nodes_network.client[32] 	downloads[32].real 	180708
scalar barabasi_100nodes_network.client[32] 	avg_time[32].real 	0
scalar barabasi_100nodes_network.client[33] 	hdistance[33].real 	0.69713041007671
scalar barabasi_100nodes_network.client[33] 	downloads[33].real 	179503
scalar barabasi_100nodes_network.client[33] 	avg_time[33].real 	0
scalar barabasi_100nodes_network.client[34] 	hdistance[34].real 	0.70077065282758
scalar barabasi_100nodes_network.client[34] 	downloads[34].real 	179588
scalar barabasi_100nodes_network.client[34] 	avg_time[34].real 	0
scalar barabasi_100nodes_network.client[35] 	hdistance[35].real 	0.92879994213639
scalar barabasi_100nodes_network.client[35] 	downloads[35].real 	179733
scalar barabasi_100nodes_network.client[35] 	avg_time[35].real 	0
scalar barabasi_100nodes_network.client[36] 	hdistance[36].real 	0.72856572069122
scalar barabasi_100nodes_network.client[36] 	downloads[36].real 	180202
scalar barabasi_100nodes_network.client[36] 	avg_time[36].real 	0
scalar barabasi_100nodes_network.client[37] 	hdistance[37].real 	0.77850251317547
scalar barabasi_100nodes_network.client[37] 	downloads[37].real 	180449
scalar barabasi_100nodes_network.client[37] 	avg_time[37].real 	0
scalar barabasi_100nodes_network.client[38] 	hdistance[38].real 	0.83042990612897
scalar barabasi_100nodes_network.client[38] 	downloads[38].real 	180993
scalar barabasi_100nodes_network.client[38] 	avg_time[38].real 	0
scalar barabasi_100nodes_network.client[39] 	hdistance[39].real 	0.84438833550678
scalar barabasi_100nodes_network.client[39] 	downloads[39].real 	180205
scalar barabasi_100nodes_network.client[39] 	avg_time[39].real 	0
scalar barabasi_100nodes_network.client[40] 	hdistance[40].real 	0.88043847580641
scalar barabasi_100nodes_network.client[40] 	downloads[40].real 	179531
scalar barabasi_100nodes_network.client[40] 	avg_time[40].real 	0
scalar barabasi_100nodes_network.client[41] 	hdistance[41].real 	0.87835321970223
scalar barabasi_100nodes_network.client[41] 	downloads[41].real 	179939
scalar barabasi_100nodes_network.client[41] 	avg_time[41].real 	0
scalar barabasi_100nodes_network.client[42] 	hdistance[42].real 	0.79645274497918
scalar barabasi_100nodes_network.client[42] 	downloads[42].real 	179801
scalar barabasi_100nodes_network.client[42] 	avg_time[42].real 	0
scalar barabasi_100nodes_network.client[43] 	hdistance[43].real 	0.85874605052003
scalar barabasi_100nodes_network.client[43] 	downloads[43].real 	180087
scalar barabasi_100nodes_network.client[43] 	avg_time[43].real 	0
scalar barabasi_100nodes_network.client[44] 	hdistance[44].real 	0.7780469602798
scalar barabasi_100nodes_network.client[44] 	downloads[44].real 	179556
scalar barabasi_100nodes_network.client[44] 	avg_time[44].real 	0
scalar barabasi_100nodes_network.client[45] 	hdistance[45].real 	0.7942741787484
scalar barabasi_100nodes_network.client[45] 	downloads[45].real 	179817
scalar barabasi_100nodes_network.client[45] 	avg_time[45].real 	0
scalar barabasi_100nodes_network.client[46] 	hdistance[46].real 	1.1946432450195
scalar barabasi_100nodes_network.client[46] 	downloads[46].real 	179549
scalar barabasi_100nodes_network.client[46] 	avg_time[46].real 	0
scalar barabasi_100nodes_network.client[47] 	hdistance[47].real 	0.90849913820512
scalar barabasi_100nodes_network.client[47] 	downloads[47].real 	179277
scalar barabasi_100nodes_network.client[47] 	avg_time[47].real 	0
scalar barabasi_100nodes_network.client[48] 	hdistance[48].real 	0.82533159080165
scalar barabasi_100nodes_network.client[48] 	downloads[48].real 	179815
scalar barabasi_100nodes_network.client[48] 	avg_time[48].real 	0
scalar barabasi_100nodes_network.client[49] 	hdistance[49].real 	0.73068699916144
scalar barabasi_100nodes_network.client[49] 	downloads[49].real 	180073
scalar barabasi_100nodes_network.client[49] 	avg_time[49].real 	0
scalar barabasi_100nodes_network.client[50] 	hdistance[50].real 	1.0142842097678
scalar barabasi_100nodes_network.client[50] 	downloads[50].real 	180409
scalar barabasi_100nodes_network.client[50] 	avg_time[50].real 	0
scalar barabasi_100nodes_network.client[51] 	hdistance[51].real 	0.90334012580845
scalar barabasi_100nodes_network.client[51] 	downloads[51].real 	180592
scalar barabasi_100nodes_network.client[51] 	avg_time[51].real 	0
scalar barabasi_100nodes_network.client[52] 	hdistance[52].real 	0.82128183144228
scalar barabasi_100nodes_network.client[52] 	downloads[52].real 	179618
scalar barabasi_100nodes_network.client[52] 	avg_time[52].real 	0
scalar barabasi_100nodes_network.client[53] 	hdistance[53].real 	0.80705252078611
scalar barabasi_100nodes_network.client[53] 	downloads[53].real 	179567
scalar barabasi_100nodes_network.client[53] 	avg_time[53].real 	0
scalar barabasi_100nodes_network.client[54] 	hdistance[54].real 	0.82582782190613
scalar barabasi_100nodes_network.client[54] 	downloads[54].real 	180534
scalar barabasi_100nodes_network.client[54] 	avg_time[54].real 	0
scalar barabasi_100nodes_network.client[55] 	hdistance[55].real 	0.79480442853724
scalar barabasi_100nodes_network.client[55] 	downloads[55].real 	179653
scalar barabasi_100nodes_network.client[55] 	avg_time[55].real 	0
scalar barabasi_100nodes_network.client[56] 	hdistance[56].real 	0.8853176893704
scalar barabasi_100nodes_network.client[56] 	downloads[56].real 	180176
scalar barabasi_100nodes_network.client[56] 	avg_time[56].real 	0
scalar barabasi_100nodes_network.client[57] 	hdistance[57].real 	0.87955422916481
scalar barabasi_100nodes_network.client[57] 	downloads[57].real 	180272
scalar barabasi_100nodes_network.client[57] 	avg_time[57].real 	0
scalar barabasi_100nodes_network.client[58] 	hdistance[58].real 	0.8062919230556
scalar barabasi_100nodes_network.client[58] 	downloads[58].real 	180390
scalar barabasi_100nodes_network.client[58] 	avg_time[58].real 	0
scalar barabasi_100nodes_network.client[59] 	hdistance[59].real 	0.69600163740361
scalar barabasi_100nodes_network.client[59] 	downloads[59].real 	180774
scalar barabasi_100nodes_network.client[59] 	avg_time[59].real 	0
scalar barabasi_100nodes_network.client[60] 	hdistance[60].real 	0.93013406256253
scalar barabasi_100nodes_network.client[60] 	downloads[60].real 	179916
scalar barabasi_100nodes_network.client[60] 	avg_time[60].real 	0
scalar barabasi_100nodes_network.client[61] 	hdistance[61].real 	0.80797671098172
scalar barabasi_100nodes_network.client[61] 	downloads[61].real 	179999
scalar barabasi_100nodes_network.client[61] 	avg_time[61].real 	0
scalar barabasi_100nodes_network.client[62] 	hdistance[62].real 	0.7557097987514
scalar barabasi_100nodes_network.client[62] 	downloads[62].real 	180523
scalar barabasi_100nodes_network.client[62] 	avg_time[62].real 	0
scalar barabasi_100nodes_network.client[63] 	hdistance[63].real 	0.87389871805521
scalar barabasi_100nodes_network.client[63] 	downloads[63].real 	180585
scalar barabasi_100nodes_network.client[63] 	avg_time[63].real 	0
scalar barabasi_100nodes_network.client[64] 	hdistance[64].real 	0.81961497314346
scalar barabasi_100nodes_network.client[64] 	downloads[64].real 	180403
scalar barabasi_100nodes_network.client[64] 	avg_time[64].real 	0
scalar barabasi_100nodes_network.client[65] 	hdistance[65].real 	0.98819811614164
scalar barabasi_100nodes_network.client[65] 	downloads[65].real 	180056
scalar barabasi_100nodes_network.client[65] 	avg_time[65].real 	0
scalar barabasi_100nodes_network.client[66] 	hdistance[66].real 	0.80978435433673
scalar barabasi_100nodes_network.client[66] 	downloads[66].real 	180574
scalar barabasi_100nodes_network.client[66] 	avg_time[66].real 	0
scalar barabasi_100nodes_network.client[67] 	hdistance[67].real 	0.80765148189108
scalar barabasi_100nodes_network.client[67] 	downloads[67].real 	179939
scalar barabasi_100nodes_network.client[67] 	avg_time[67].real 	0
scalar barabasi_100nodes_network.client[68] 	hdistance[68].real 	0.84428679982029
scalar barabasi_100nodes_network.client[68] 	downloads[68].real 	180293
scalar barabasi_100nodes_network.client[68] 	avg_time[68].real 	0
scalar barabasi_100nodes_network.client[69] 	hdistance[69].real 	0.7895179622036
scalar barabasi_100nodes_network.client[69] 	downloads[69].real 	179488
scalar barabasi_100nodes_network.client[69] 	avg_time[69].real 	0
scalar barabasi_100nodes_network.client[70] 	hdistance[70].real 	0.87495565016853
scalar barabasi_100nodes_network.client[70] 	downloads[70].real 	180384
scalar barabasi_100nodes_network.client[70] 	avg_time[70].real 	0
scalar barabasi_100nodes_network.client[71] 	hdistance[71].real 	0.8915809443273
scalar barabasi_100nodes_network.client[71] 	downloads[71].real 	179747
scalar barabasi_100nodes_network.client[71] 	avg_time[71].real 	0
scalar barabasi_100nodes_network.client[72] 	hdistance[72].real 	0.81379360054115
scalar barabasi_100nodes_network.client[72] 	downloads[72].real 	180359
scalar barabasi_100nodes_network.client[72] 	avg_time[72].real 	0
scalar barabasi_100nodes_network.client[73] 	hdistance[73].real 	0.8076788326039
scalar barabasi_100nodes_network.client[73] 	downloads[73].real 	179819
scalar barabasi_100nodes_network.client[73] 	avg_time[73].real 	0
scalar barabasi_100nodes_network.client[74] 	hdistance[74].real 	0.82103982939779
scalar barabasi_100nodes_network.client[74] 	downloads[74].real 	180068
scalar barabasi_100nodes_network.client[74] 	avg_time[74].real 	0
scalar barabasi_100nodes_network.client[75] 	hdistance[75].real 	0.82602813702184
scalar barabasi_100nodes_network.client[75] 	downloads[75].real 	179621
scalar barabasi_100nodes_network.client[75] 	avg_time[75].real 	0
scalar barabasi_100nodes_network.client[76] 	hdistance[76].real 	0.8908114391742
scalar barabasi_100nodes_network.client[76] 	downloads[76].real 	178929
scalar barabasi_100nodes_network.client[76] 	avg_time[76].real 	0
scalar barabasi_100nodes_network.client[77] 	hdistance[77].real 	0.86251485830454
scalar barabasi_100nodes_network.client[77] 	downloads[77].real 	180034
scalar barabasi_100nodes_network.client[77] 	avg_time[77].real 	0
scalar barabasi_100nodes_network.client[78] 	hdistance[78].real 	0.89482235762179
scalar barabasi_100nodes_network.client[78] 	downloads[78].real 	179715
scalar barabasi_100nodes_network.client[78] 	avg_time[78].real 	0
scalar barabasi_100nodes_network.client[79] 	hdistance[79].real 	0.70018236811672
scalar barabasi_100nodes_network.client[79] 	downloads[79].real 	179856
scalar barabasi_100nodes_network.client[79] 	avg_time[79].real 	0
scalar barabasi_100nodes_network.client[80] 	hdistance[80].real 	0.87919672103797
scalar barabasi_100nodes_network.client[80] 	downloads[80].real 	179813
scalar barabasi_100nodes_network.client[80] 	avg_time[80].real 	0
scalar barabasi_100nodes_network.client[81] 	hdistance[81].real 	0.9479110717351
scalar barabasi_100nodes_network.client[81] 	downloads[81].real 	180595
scalar barabasi_100nodes_network.client[81] 	avg_time[81].real 	0
scalar barabasi_100nodes_network.client[82] 	hdistance[82].real 	1.150337621919
scalar barabasi_100nodes_network.client[82] 	downloads[82].real 	179935
scalar barabasi_100nodes_network.client[82] 	avg_time[82].real 	0
scalar barabasi_100nodes_network.client[83] 	hdistance[83].real 	0.90095468692129
scalar barabasi_100nodes_network.client[83] 	downloads[83].real 	180897
scalar barabasi_100nodes_network.client[83] 	avg_time[83].real 	0
scalar barabasi_100nodes_network.client[84] 	hdistance[84].real 	0.87389890793898
scalar barabasi_100nodes_network.client[84] 	downloads[84].real 	179935
scalar barabasi_100nodes_network.client[84] 	avg_time[84].real 	0
scalar barabasi_100nodes_network.client[85] 	hdistance[85].real 	0.74356152199894
scalar barabasi_100nodes_network.client[85] 	downloads[85].real 	179895
scalar barabasi_100nodes_network.client[85] 	avg_time[85].real 	0
scalar barabasi_100nodes_network.client[86] 	hdistance[86].real 	0.89655038824044
scalar barabasi_100nodes_network.client[86] 	downloads[86].real 	180687
scalar barabasi_100nodes_network.client[86] 	avg_time[86].real 	0
scalar barabasi_100nodes_network.client[87] 	hdistance[87].real 	0.94603849398393
scalar barabasi_100nodes_network.client[87] 	downloads[87].real 	180184
scalar barabasi_100nodes_network.client[87] 	avg_time[87].real 	0
scalar barabasi_100nodes_network.client[88] 	hdistance[88].real 	0.73403461902376
scalar barabasi_100nodes_network.client[88] 	downloads[88].real 	179670
scalar barabasi_100nodes_network.client[88] 	avg_time[88].real 	0
scalar barabasi_100nodes_network.client[89] 	hdistance[89].real 	0.8753002124367
scalar barabasi_100nodes_network.client[89] 	downloads[89].real 	180289
scalar barabasi_100nodes_network.client[89] 	avg_time[89].real 	0
scalar barabasi_100nodes_network.client[90] 	hdistance[90].real 	0.73666686979596
scalar barabasi_100nodes_network.client[90] 	downloads[90].real 	180509
scalar barabasi_100nodes_network.client[90] 	avg_time[90].real 	0
scalar barabasi_100nodes_network.client[91] 	hdistance[91].real 	0.76602328143078
scalar barabasi_100nodes_network.client[91] 	downloads[91].real 	180659
scalar barabasi_100nodes_network.client[91] 	avg_time[91].real 	0
scalar barabasi_100nodes_network.client[92] 	hdistance[92].real 	0.95256855586013
scalar barabasi_100nodes_network.client[92] 	downloads[92].real 	180218
scalar barabasi_100nodes_network.client[92] 	avg_time[92].real 	0
scalar barabasi_100nodes_network.client[93] 	hdistance[93].real 	0.77633707914977
scalar barabasi_100nodes_network.client[93] 	downloads[93].real 	180468
scalar barabasi_100nodes_network.client[93] 	avg_time[93].real 	0
scalar barabasi_100nodes_network.client[94] 	hdistance[94].real 	0.8906624412754
scalar barabasi_100nodes_network.client[94] 	downloads[94].real 	179865
scalar barabasi_100nodes_network.client[94] 	avg_time[94].real 	0
scalar barabasi_100nodes_network.client[95] 	hdistance[95].real 	1.0496251338808
scalar barabasi_100nodes_network.client[95] 	downloads[95].real 	179264
scalar barabasi_100nodes_network.client[95] 	avg_time[95].real 	0
scalar barabasi_100nodes_network.client[96] 	hdistance[96].real 	0.94736374243014
scalar barabasi_100nodes_network.client[96] 	downloads[96].real 	179990
scalar barabasi_100nodes_network.client[96] 	avg_time[96].real 	0
scalar barabasi_100nodes_network.client[97] 	hdistance[97].real 	0.91298054526498
scalar barabasi_100nodes_network.client[97] 	downloads[97].real 	180316
scalar barabasi_100nodes_network.client[97] 	avg_time[97].real 	0
scalar barabasi_100nodes_network.client[98] 	hdistance[98].real 	1.0350598007197
scalar barabasi_100nodes_network.client[98] 	downloads[98].real 	180349
scalar barabasi_100nodes_network.client[98] 	avg_time[98].real 	0
scalar barabasi_100nodes_network.client[99] 	hdistance[99].real 	0.85281899440718
scalar barabasi_100nodes_network.client[99] 	downloads[99].real 	179337
scalar barabasi_100nodes_network.client[99] 	avg_time[99].real 	0
