version 2
run General-0-20141030-18:17:14-22231
attr D costaware0.1
attr F nrr
attr R lru
attr a 1
attr configname General
attr csize 1e3
attr ctlg 1e5
attr datetime 20141030-18:17:14
attr experiment General
attr inifile omnetpp.ini
attr iterationvars "$rep=0, $lambda=100, $a=1, $ctlg=1e5, $F=nrr, $ttl=10, $D=costaware0.1, $R=lru, $csize=1e3, $window=60, $variance=0.05, $mytime=1800, $kappa=1, $priceratiovalue=10, $pricebits=0"
attr iterationvars2 "$rep=0, $lambda=100, $a=1, $ctlg=1e5, $F=nrr, $ttl=10, $D=costaware0.1, $R=lru, $csize=1e3, $window=60, $variance=0.05, $mytime=1800, $kappa=1, $priceratiovalue=10, $pricebits=0, $repetition=0"
attr kappa 1
attr lambda 100
attr measurement "$rep=0, $lambda=100, $a=1, $ctlg=1e5, $F=nrr, $ttl=10, $D=costaware0.1, $R=lru, $csize=1e3, $window=60, $variance=0.05, $mytime=1800, $kappa=1, $priceratiovalue=10, $pricebits=0"
attr mytime 1800
attr network networks.ws1_network
attr pricebits 0
attr priceratiovalue 10
attr processid 22231
attr rep 0
attr repetition 0
attr replication #0
attr resultdir results
attr runnumber 0
attr seedset 0
attr ttl 10
attr variance 0.05
attr window 60

scalar . 	a 	1
scalar . 	csize 	1e3
scalar . 	ctlg 	1e5
scalar . 	kappa 	1
scalar . 	lambda 	100
scalar . 	mytime 	1800
scalar . 	pricebits 	0
scalar . 	priceratiovalue 	10
scalar . 	rep 	0
scalar . 	ttl 	10
scalar . 	variance 	0.05
scalar . 	window 	60
scalar ws1_network.content_distribution 	repo-0 	5
scalar ws1_network.content_distribution 	repo-1 	11
scalar ws1_network.content_distribution 	repo-2 	12
scalar ws1_network.content_distribution 	client-0 	9
scalar ws1_network.content_distribution 	client-1 	11
scalar ws1_network.content_distribution 	client-2 	5
scalar ws1_network.content_distribution 	repo-0_card 	33394
scalar ws1_network.content_distribution 	repo-0_price 	0
scalar ws1_network.content_distribution 	repo-1_card 	33351
scalar ws1_network.content_distribution 	repo-1_price 	1
scalar ws1_network.content_distribution 	repo-2_card 	33255
scalar ws1_network.content_distribution 	repo-2_price 	10
scalar ws1_network.statistics 	repo_popularity[0] 	0.41760261045464
scalar ws1_network.statistics 	repo_popularity[1] 	0.30643030290739
scalar ws1_network.statistics 	repo_popularity[2] 	0.27596708663799
scalar ws1_network.statistics 	p_hit 	0.082907302567622
scalar ws1_network.statistics 	interests 	11922.954545455
scalar ws1_network.statistics 	data 	6760.1363636364
scalar ws1_network.statistics 	hdistance 	2.130191441789
scalar ws1_network.statistics 	avg_time 	0.006824276486
scalar ws1_network.statistics 	downloads 	112747
scalar ws1_network.statistics 	total_cost 	233186
scalar ws1_network.statistics 	total_replicas 	100000
scalar ws1_network.statistics 	inner_hit 	0.19584556573567
scalar ws1_network.statistics 	interests_sent 	113582
scalar ws1_network.node[0].core_layer 	interests[0] 	0
scalar ws1_network.node[0].core_layer 	data[0] 	0
scalar ws1_network.node[0].core_layer 	repo_int[0] 	90666
scalar ws1_network.node[0].content_store 	p_hit[0] 	-nan
scalar ws1_network.node[0].content_store 	hits[0] 	0
scalar ws1_network.node[0].content_store 	misses[0] 	0
scalar ws1_network.node[0].content_store 	decision_yes[0] 	0
scalar ws1_network.node[0].content_store 	decision_no[0] 	0
scalar ws1_network.node[0].content_store 	decision_ratio[0] 	0
scalar ws1_network.node[0].content_store 	correction_factor[0] 	0.027225701061802
scalar ws1_network.node[0].content_store 	kappa[0] 	1
scalar ws1_network.node[1].core_layer 	interests[1] 	0
scalar ws1_network.node[1].core_layer 	data[1] 	0
scalar ws1_network.node[1].content_store 	p_hit[1] 	-nan
scalar ws1_network.node[1].content_store 	hits[1] 	0
scalar ws1_network.node[1].content_store 	misses[1] 	0
scalar ws1_network.node[1].content_store 	decision_yes[1] 	0
scalar ws1_network.node[1].content_store 	decision_no[1] 	0
scalar ws1_network.node[1].content_store 	decision_ratio[1] 	0
scalar ws1_network.node[1].content_store 	correction_factor[1] 	0.027225701061802
scalar ws1_network.node[1].content_store 	kappa[1] 	1
scalar ws1_network.node[2].core_layer 	interests[2] 	0
scalar ws1_network.node[2].core_layer 	data[2] 	0
scalar ws1_network.node[2].content_store 	p_hit[2] 	-nan
scalar ws1_network.node[2].content_store 	hits[2] 	0
scalar ws1_network.node[2].content_store 	misses[2] 	0
scalar ws1_network.node[2].content_store 	decision_yes[2] 	0
scalar ws1_network.node[2].content_store 	decision_no[2] 	0
scalar ws1_network.node[2].content_store 	decision_ratio[2] 	0
scalar ws1_network.node[2].content_store 	correction_factor[2] 	0.027225701061802
scalar ws1_network.node[2].content_store 	kappa[2] 	1
scalar ws1_network.node[3].core_layer 	interests[3] 	0
scalar ws1_network.node[3].core_layer 	data[3] 	0
scalar ws1_network.node[3].content_store 	p_hit[3] 	-nan
scalar ws1_network.node[3].content_store 	hits[3] 	0
scalar ws1_network.node[3].content_store 	misses[3] 	0
scalar ws1_network.node[3].content_store 	decision_yes[3] 	0
scalar ws1_network.node[3].content_store 	decision_no[3] 	0
scalar ws1_network.node[3].content_store 	decision_ratio[3] 	0
scalar ws1_network.node[3].content_store 	correction_factor[3] 	0.027225701061802
scalar ws1_network.node[3].content_store 	kappa[3] 	1
scalar ws1_network.node[4].core_layer 	interests[4] 	58032
scalar ws1_network.node[4].core_layer 	data[4] 	53273
scalar ws1_network.node[4].content_store 	p_hit[4] 	0.076251033912324
scalar ws1_network.node[4].content_store 	hits[4] 	4425
scalar ws1_network.node[4].content_store 	misses[4] 	53607
scalar ws1_network.node[4].content_store 	decision_yes[4] 	394
scalar ws1_network.node[4].content_store 	decision_no[4] 	52879
scalar ws1_network.node[4].content_store 	decision_ratio[4] 	0.0073958665740619
scalar ws1_network.node[4].content_store 	correction_factor[4] 	0.027225701061802
scalar ws1_network.node[4].content_store 	kappa[4] 	1
scalar ws1_network.node[5].core_layer 	interests[5] 	70250
scalar ws1_network.node[5].core_layer 	repo_load[5] 	46012
scalar ws1_network.node[5].core_layer 	data[5] 	20758
scalar ws1_network.node[5].content_store 	p_hit[5] 	0.048740213523132
scalar ws1_network.node[5].content_store 	hits[5] 	3424
scalar ws1_network.node[5].content_store 	misses[5] 	66826
scalar ws1_network.node[5].content_store 	decision_yes[5] 	2192
scalar ws1_network.node[5].content_store 	decision_no[5] 	64578
scalar ws1_network.node[5].content_store 	decision_ratio[5] 	0.032829114871948
scalar ws1_network.node[5].content_store 	correction_factor[5] 	0.027225701061802
scalar ws1_network.node[5].content_store 	kappa[5] 	1
scalar ws1_network.node[6].core_layer 	interests[6] 	0
scalar ws1_network.node[6].core_layer 	data[6] 	0
scalar ws1_network.node[6].content_store 	p_hit[6] 	-nan
scalar ws1_network.node[6].content_store 	hits[6] 	0
scalar ws1_network.node[6].content_store 	misses[6] 	0
scalar ws1_network.node[6].content_store 	decision_yes[6] 	0
scalar ws1_network.node[6].content_store 	decision_no[6] 	0
scalar ws1_network.node[6].content_store 	decision_ratio[6] 	0
scalar ws1_network.node[6].content_store 	correction_factor[6] 	0.027225701061802
scalar ws1_network.node[6].content_store 	kappa[6] 	1
scalar ws1_network.node[7].core_layer 	interests[7] 	0
scalar ws1_network.node[7].core_layer 	data[7] 	0
scalar ws1_network.node[7].content_store 	p_hit[7] 	-nan
scalar ws1_network.node[7].content_store 	hits[7] 	0
scalar ws1_network.node[7].content_store 	misses[7] 	0
scalar ws1_network.node[7].content_store 	decision_yes[7] 	0
scalar ws1_network.node[7].content_store 	decision_no[7] 	0
scalar ws1_network.node[7].content_store 	decision_ratio[7] 	0
scalar ws1_network.node[7].content_store 	correction_factor[7] 	0.027225701061802
scalar ws1_network.node[7].content_store 	kappa[7] 	1
scalar ws1_network.node[8].core_layer 	interests[8] 	0
scalar ws1_network.node[8].core_layer 	data[8] 	0
scalar ws1_network.node[8].content_store 	p_hit[8] 	-nan
scalar ws1_network.node[8].content_store 	hits[8] 	0
scalar ws1_network.node[8].content_store 	misses[8] 	0
scalar ws1_network.node[8].content_store 	decision_yes[8] 	0
scalar ws1_network.node[8].content_store 	decision_no[8] 	0
scalar ws1_network.node[8].content_store 	decision_ratio[8] 	0
scalar ws1_network.node[8].content_store 	correction_factor[8] 	0.027225701061802
scalar ws1_network.node[8].content_store 	kappa[8] 	1
scalar ws1_network.node[9].core_layer 	interests[9] 	40632
scalar ws1_network.node[9].core_layer 	data[9] 	35541
scalar ws1_network.node[9].content_store 	p_hit[9] 	0.11503248670998
scalar ws1_network.node[9].content_store 	hits[9] 	4674
scalar ws1_network.node[9].content_store 	misses[9] 	35958
scalar ws1_network.node[9].content_store 	decision_yes[9] 	2075
scalar ws1_network.node[9].content_store 	decision_no[9] 	33466
scalar ws1_network.node[9].content_store 	decision_ratio[9] 	0.058383275653471
scalar ws1_network.node[9].content_store 	correction_factor[9] 	0.027225701061802
scalar ws1_network.node[9].content_store 	kappa[9] 	1
scalar ws1_network.node[10].core_layer 	interests[10] 	15394
scalar ws1_network.node[10].core_layer 	data[10] 	14398
scalar ws1_network.node[10].content_store 	p_hit[10] 	0.064635572300896
scalar ws1_network.node[10].content_store 	hits[10] 	995
scalar ws1_network.node[10].content_store 	misses[10] 	14399
scalar ws1_network.node[10].content_store 	decision_yes[10] 	3819
scalar ws1_network.node[10].content_store 	decision_no[10] 	10579
scalar ws1_network.node[10].content_store 	decision_ratio[10] 	0.26524517294069
scalar ws1_network.node[10].content_store 	correction_factor[10] 	0.027225701061802
scalar ws1_network.node[10].content_store 	kappa[10] 	1
scalar ws1_network.node[11].core_layer 	interests[11] 	55972
scalar ws1_network.node[11].core_layer 	repo_load[11] 	23706
scalar ws1_network.node[11].core_layer 	data[11] 	24753
scalar ws1_network.node[11].content_store 	p_hit[11] 	0.12777817480169
scalar ws1_network.node[11].content_store 	hits[11] 	7152
scalar ws1_network.node[11].content_store 	misses[11] 	48820
scalar ws1_network.node[11].content_store 	decision_yes[11] 	2520
scalar ws1_network.node[11].content_store 	decision_no[11] 	45939
scalar ws1_network.node[11].content_store 	decision_ratio[11] 	0.052002723952207
scalar ws1_network.node[11].content_store 	correction_factor[11] 	0.027225701061802
scalar ws1_network.node[11].content_store 	kappa[11] 	1
scalar ws1_network.node[12].core_layer 	interests[12] 	22025
scalar ws1_network.node[12].core_layer 	repo_load[12] 	20948
scalar ws1_network.node[12].core_layer 	data[12] 	0
scalar ws1_network.node[12].content_store 	p_hit[12] 	0.048898978433598
scalar ws1_network.node[12].content_store 	hits[12] 	1077
scalar ws1_network.node[12].content_store 	misses[12] 	20948
scalar ws1_network.node[12].content_store 	decision_yes[12] 	5594
scalar ws1_network.node[12].content_store 	decision_no[12] 	15354
scalar ws1_network.node[12].content_store 	decision_ratio[12] 	0.26704219973267
scalar ws1_network.node[12].content_store 	correction_factor[12] 	0.027225701061802
scalar ws1_network.node[12].content_store 	kappa[12] 	1
scalar ws1_network.node[13].core_layer 	interests[13] 	0
scalar ws1_network.node[13].core_layer 	data[13] 	0
scalar ws1_network.node[13].content_store 	p_hit[13] 	-nan
scalar ws1_network.node[13].content_store 	hits[13] 	0
scalar ws1_network.node[13].content_store 	misses[13] 	0
scalar ws1_network.node[13].content_store 	decision_yes[13] 	0
scalar ws1_network.node[13].content_store 	decision_no[13] 	0
scalar ws1_network.node[13].content_store 	decision_ratio[13] 	0
scalar ws1_network.node[13].content_store 	correction_factor[13] 	0.027225701061802
scalar ws1_network.node[13].content_store 	kappa[13] 	1
scalar ws1_network.node[14].core_layer 	interests[14] 	0
scalar ws1_network.node[14].core_layer 	data[14] 	0
scalar ws1_network.node[14].content_store 	p_hit[14] 	-nan
scalar ws1_network.node[14].content_store 	hits[14] 	0
scalar ws1_network.node[14].content_store 	misses[14] 	0
scalar ws1_network.node[14].content_store 	decision_yes[14] 	0
scalar ws1_network.node[14].content_store 	decision_no[14] 	0
scalar ws1_network.node[14].content_store 	decision_ratio[14] 	0
scalar ws1_network.node[14].content_store 	correction_factor[14] 	0.027225701061802
scalar ws1_network.node[14].content_store 	kappa[14] 	1
scalar ws1_network.node[15].core_layer 	interests[15] 	0
scalar ws1_network.node[15].core_layer 	data[15] 	0
scalar ws1_network.node[15].content_store 	p_hit[15] 	-nan
scalar ws1_network.node[15].content_store 	hits[15] 	0
scalar ws1_network.node[15].content_store 	misses[15] 	0
scalar ws1_network.node[15].content_store 	decision_yes[15] 	0
scalar ws1_network.node[15].content_store 	decision_no[15] 	0
scalar ws1_network.node[15].content_store 	decision_ratio[15] 	0
scalar ws1_network.node[15].content_store 	correction_factor[15] 	0.027225701061802
scalar ws1_network.node[15].content_store 	kappa[15] 	1
scalar ws1_network.node[16].core_layer 	interests[16] 	0
scalar ws1_network.node[16].core_layer 	data[16] 	0
scalar ws1_network.node[16].content_store 	p_hit[16] 	-nan
scalar ws1_network.node[16].content_store 	hits[16] 	0
scalar ws1_network.node[16].content_store 	misses[16] 	0
scalar ws1_network.node[16].content_store 	decision_yes[16] 	0
scalar ws1_network.node[16].content_store 	decision_no[16] 	0
scalar ws1_network.node[16].content_store 	decision_ratio[16] 	0
scalar ws1_network.node[16].content_store 	correction_factor[16] 	0.027225701061802
scalar ws1_network.node[16].content_store 	kappa[16] 	1
scalar ws1_network.node[17].core_layer 	interests[17] 	0
scalar ws1_network.node[17].core_layer 	data[17] 	0
scalar ws1_network.node[17].content_store 	p_hit[17] 	-nan
scalar ws1_network.node[17].content_store 	hits[17] 	0
scalar ws1_network.node[17].content_store 	misses[17] 	0
scalar ws1_network.node[17].content_store 	decision_yes[17] 	0
scalar ws1_network.node[17].content_store 	decision_no[17] 	0
scalar ws1_network.node[17].content_store 	decision_ratio[17] 	0
scalar ws1_network.node[17].content_store 	correction_factor[17] 	0.027225701061802
scalar ws1_network.node[17].content_store 	kappa[17] 	1
scalar ws1_network.node[18].core_layer 	interests[18] 	0
scalar ws1_network.node[18].core_layer 	data[18] 	0
scalar ws1_network.node[18].content_store 	p_hit[18] 	-nan
scalar ws1_network.node[18].content_store 	hits[18] 	0
scalar ws1_network.node[18].content_store 	misses[18] 	0
scalar ws1_network.node[18].content_store 	decision_yes[18] 	0
scalar ws1_network.node[18].content_store 	decision_no[18] 	0
scalar ws1_network.node[18].content_store 	decision_ratio[18] 	0
scalar ws1_network.node[18].content_store 	correction_factor[18] 	0.027225701061802
scalar ws1_network.node[18].content_store 	kappa[18] 	1
scalar ws1_network.node[19].core_layer 	interests[19] 	0
scalar ws1_network.node[19].core_layer 	data[19] 	0
scalar ws1_network.node[19].content_store 	p_hit[19] 	-nan
scalar ws1_network.node[19].content_store 	hits[19] 	0
scalar ws1_network.node[19].content_store 	misses[19] 	0
scalar ws1_network.node[19].content_store 	decision_yes[19] 	0
scalar ws1_network.node[19].content_store 	decision_no[19] 	0
scalar ws1_network.node[19].content_store 	decision_ratio[19] 	0
scalar ws1_network.node[19].content_store 	correction_factor[19] 	0.027225701061802
scalar ws1_network.node[19].content_store 	kappa[19] 	1
scalar ws1_network.node[20].core_layer 	interests[20] 	0
scalar ws1_network.node[20].core_layer 	data[20] 	0
scalar ws1_network.node[20].content_store 	p_hit[20] 	-nan
scalar ws1_network.node[20].content_store 	hits[20] 	0
scalar ws1_network.node[20].content_store 	misses[20] 	0
scalar ws1_network.node[20].content_store 	decision_yes[20] 	0
scalar ws1_network.node[20].content_store 	decision_no[20] 	0
scalar ws1_network.node[20].content_store 	decision_ratio[20] 	0
scalar ws1_network.node[20].content_store 	correction_factor[20] 	0.027225701061802
scalar ws1_network.node[20].content_store 	kappa[20] 	1
scalar ws1_network.node[21].core_layer 	interests[21] 	0
scalar ws1_network.node[21].core_layer 	data[21] 	0
scalar ws1_network.node[21].content_store 	p_hit[21] 	-nan
scalar ws1_network.node[21].content_store 	hits[21] 	0
scalar ws1_network.node[21].content_store 	misses[21] 	0
scalar ws1_network.node[21].content_store 	decision_yes[21] 	0
scalar ws1_network.node[21].content_store 	decision_no[21] 	0
scalar ws1_network.node[21].content_store 	decision_ratio[21] 	0
scalar ws1_network.node[21].content_store 	correction_factor[21] 	0.027225701061802
scalar ws1_network.node[21].content_store 	kappa[21] 	1
scalar ws1_network.client[5] 	hdistance[5] 	1.6355522695466
scalar ws1_network.client[5] 	downloads[5] 	37871
scalar ws1_network.client[5] 	avg_time[5] 	0.00433925565
scalar ws1_network.client[5] 	interests_sent[5] 	37927
scalar ws1_network.client[9] 	hdistance[9] 	2.6051427963623
scalar ws1_network.client[9] 	downloads[9] 	37606
scalar ws1_network.client[9] 	avg_time[9] 	0.009349615917
scalar ws1_network.client[9] 	interests_sent[9] 	38024
scalar ws1_network.client[11] 	hdistance[11] 	2.149879259458
scalar ws1_network.client[11] 	downloads[11] 	37270
scalar ws1_network.client[11] 	avg_time[11] 	0.006783957891
scalar ws1_network.client[11] 	interests_sent[11] 	37631
