version 2
run General-180-20140526-10:00:15-22998
attr D costprobprodcorr0.01
attr F nrr
attr R lru
attr a 1
attr configname General
attr csize 1e3
attr ctlg 1e5
attr datetime 20140526-10:00:15
attr experiment General
attr inifile omnetpp.ini
attr iterationvars "$net=one_cache_scenario_3_links, $rep=14, $priceratiovalue=1, $weights=0.333_0.333_0.334, $lambda=100, $a=1, $ctlg=1e5, $F=nrr, $ttl=1000, $D=costprobprodcorr0.01, $xi=0.01, $R=lru, $csize=1e3, $pricebits=0, $mytime=1800"
attr iterationvars2 "$net=one_cache_scenario_3_links, $rep=14, $priceratiovalue=1, $weights=0.333_0.333_0.334, $lambda=100, $a=1, $ctlg=1e5, $F=nrr, $ttl=1000, $D=costprobprodcorr0.01, $xi=0.01, $R=lru, $csize=1e3, $pricebits=0, $mytime=1800, $repetition=0"
attr lambda 100
attr measurement "$net=one_cache_scenario_3_links, $rep=14, $priceratiovalue=1, $weights=0.333_0.333_0.334, $lambda=100, $a=1, $ctlg=1e5, $F=nrr, $ttl=1000, $D=costprobprodcorr0.01, $xi=0.01, $R=lru, $csize=1e3, $pricebits=0, $mytime=1800"
attr mytime 1800
attr net one_cache_scenario_3_links
attr network networks.${net=one_cache_scenario_3_links}_network
attr pricebits 0
attr priceratiovalue 1
attr processid 22998
attr rep 14
attr repetition 0
attr replication #0
attr resultdir results
attr runnumber 180
attr seedset 14
attr ttl 1000
attr weights 0.333_0.333_0.334
attr xi 0.01

scalar . 	a 	1
scalar . 	csize 	1e3
scalar . 	ctlg 	1e5
scalar . 	lambda 	100
scalar . 	mytime 	1800
scalar . 	pricebits 	0
scalar . 	priceratiovalue 	1
scalar . 	rep 	14
scalar . 	ttl 	1000
scalar . 	xi 	0.01
scalar one_cache_scenario_3_links_network.content_distribution 	repo-0 	4
scalar one_cache_scenario_3_links_network.content_distribution 	repo-1 	5
scalar one_cache_scenario_3_links_network.content_distribution 	repo-2 	6
scalar one_cache_scenario_3_links_network.content_distribution 	client-0 	0
scalar one_cache_scenario_3_links_network.content_distribution 	repo-0_card 	32966
scalar one_cache_scenario_3_links_network.content_distribution 	repo-1_card 	33555
scalar one_cache_scenario_3_links_network.content_distribution 	repo-2_card 	33479
scalar one_cache_scenario_3_links_network.statistics 	repo_popularity[0] 	0.41551934442987
scalar one_cache_scenario_3_links_network.statistics 	repo_popularity[1] 	0.31847271720617
scalar one_cache_scenario_3_links_network.statistics 	repo_popularity[2] 	0.26600793836396
scalar one_cache_scenario_3_links_network.statistics 	stabilization_time 	1971.8
scalar one_cache_scenario_3_links_network.node[1].face$o[2].channel 	price[1] 	0
scalar one_cache_scenario_3_links_network.node[1].face$o[2].channel 	represented_price[1] 	0
scalar one_cache_scenario_3_links_network.node[2].face$o[2].channel 	price[2] 	0
scalar one_cache_scenario_3_links_network.node[2].face$o[2].channel 	represented_price[2] 	0
scalar one_cache_scenario_3_links_network.node[3].face$o[2].channel 	price[3] 	0
scalar one_cache_scenario_3_links_network.node[3].face$o[2].channel 	represented_price[3] 	0
scalar one_cache_scenario_3_links_network.node[4].face$o[1].channel 	price[4] 	0
scalar one_cache_scenario_3_links_network.node[4].face$o[1].channel 	represented_price[4] 	0
scalar one_cache_scenario_3_links_network.node[5].face$o[1].channel 	price[5] 	1
scalar one_cache_scenario_3_links_network.node[5].face$o[1].channel 	represented_price[5] 	1
scalar one_cache_scenario_3_links_network.node[6].face$o[1].channel 	price[6] 	1
scalar one_cache_scenario_3_links_network.node[6].face$o[1].channel 	represented_price[6] 	1
scalar one_cache_scenario_3_links_network.statistics 	p_hit 	0.12599045080026
scalar one_cache_scenario_3_links_network.statistics 	interests 	61516
scalar one_cache_scenario_3_links_network.statistics 	data 	35843.714285714
scalar one_cache_scenario_3_links_network.statistics 	hdistance 	1.3962026866103
scalar one_cache_scenario_3_links_network.statistics 	avg_time 	0
scalar one_cache_scenario_3_links_network.statistics 	downloads 	179706
scalar one_cache_scenario_3_links_network.statistics 	total_cost 	50911
scalar one_cache_scenario_3_links_network.statistics 	total_replicas 	100000
scalar one_cache_scenario_3_links_network.statistics 	interests_sent 	179706
scalar one_cache_scenario_3_links_network.node[0].core_layer 	interests[0] 	179706
scalar one_cache_scenario_3_links_network.node[0].core_layer 	data[0] 	125453
scalar one_cache_scenario_3_links_network.node[0].core_layer 	repo_int[0] 	125453
scalar one_cache_scenario_3_links_network.node[0].content_store 	p_hit[0] 	0.30189865669482
scalar one_cache_scenario_3_links_network.node[0].content_store 	hits[0] 	54253
scalar one_cache_scenario_3_links_network.node[0].content_store 	misses[0] 	125453
scalar one_cache_scenario_3_links_network.node[0].content_store 	decision_yes[0] 	740
scalar one_cache_scenario_3_links_network.node[0].content_store 	decision_no[0] 	124713
scalar one_cache_scenario_3_links_network.node[0].content_store 	decision_ratio[0] 	0.0058986233888388
scalar one_cache_scenario_3_links_network.node[0].content_store 	correction_factor[0] 	0.014992503748126
scalar one_cache_scenario_3_links_network.node[0].content_store 	xi[0] 	0.01
scalar one_cache_scenario_3_links_network.node[1].core_layer 	interests[1] 	74542
scalar one_cache_scenario_3_links_network.node[1].core_layer 	data[1] 	74542
scalar one_cache_scenario_3_links_network.node[1].content_store 	p_hit[1] 	0
scalar one_cache_scenario_3_links_network.node[1].content_store 	hits[1] 	0
scalar one_cache_scenario_3_links_network.node[1].content_store 	misses[1] 	74542
scalar one_cache_scenario_3_links_network.node[1].content_store 	decision_yes[1] 	0
scalar one_cache_scenario_3_links_network.node[1].content_store 	decision_no[1] 	74542
scalar one_cache_scenario_3_links_network.node[1].content_store 	decision_ratio[1] 	0
scalar one_cache_scenario_3_links_network.node[2].core_layer 	interests[2] 	25221
scalar one_cache_scenario_3_links_network.node[2].core_layer 	data[2] 	25221
scalar one_cache_scenario_3_links_network.node[2].content_store 	p_hit[2] 	0
scalar one_cache_scenario_3_links_network.node[2].content_store 	hits[2] 	0
scalar one_cache_scenario_3_links_network.node[2].content_store 	misses[2] 	25221
scalar one_cache_scenario_3_links_network.node[2].content_store 	decision_yes[2] 	0
scalar one_cache_scenario_3_links_network.node[2].content_store 	decision_no[2] 	25221
scalar one_cache_scenario_3_links_network.node[2].content_store 	decision_ratio[2] 	0
scalar one_cache_scenario_3_links_network.node[3].core_layer 	interests[3] 	25690
scalar one_cache_scenario_3_links_network.node[3].core_layer 	data[3] 	25690
scalar one_cache_scenario_3_links_network.node[3].content_store 	p_hit[3] 	0
scalar one_cache_scenario_3_links_network.node[3].content_store 	hits[3] 	0
scalar one_cache_scenario_3_links_network.node[3].content_store 	misses[3] 	25690
scalar one_cache_scenario_3_links_network.node[3].content_store 	decision_yes[3] 	0
scalar one_cache_scenario_3_links_network.node[3].content_store 	decision_no[3] 	25690
scalar one_cache_scenario_3_links_network.node[3].content_store 	decision_ratio[3] 	0
scalar one_cache_scenario_3_links_network.node[4].core_layer 	interests[4] 	74542
scalar one_cache_scenario_3_links_network.node[4].core_layer 	repo_load[4] 	74542
scalar one_cache_scenario_3_links_network.node[4].core_layer 	data[4] 	0
scalar one_cache_scenario_3_links_network.node[4].content_store 	p_hit[4] 	0
scalar one_cache_scenario_3_links_network.node[4].content_store 	hits[4] 	0
scalar one_cache_scenario_3_links_network.node[4].content_store 	misses[4] 	74542
scalar one_cache_scenario_3_links_network.node[4].content_store 	decision_yes[4] 	0
scalar one_cache_scenario_3_links_network.node[4].content_store 	decision_no[4] 	74542
scalar one_cache_scenario_3_links_network.node[4].content_store 	decision_ratio[4] 	0
scalar one_cache_scenario_3_links_network.node[5].core_layer 	interests[5] 	25221
scalar one_cache_scenario_3_links_network.node[5].core_layer 	repo_load[5] 	25221
scalar one_cache_scenario_3_links_network.node[5].core_layer 	data[5] 	0
scalar one_cache_scenario_3_links_network.node[5].content_store 	p_hit[5] 	0
scalar one_cache_scenario_3_links_network.node[5].content_store 	hits[5] 	0
scalar one_cache_scenario_3_links_network.node[5].content_store 	misses[5] 	25221
scalar one_cache_scenario_3_links_network.node[5].content_store 	decision_yes[5] 	0
scalar one_cache_scenario_3_links_network.node[5].content_store 	decision_no[5] 	25221
scalar one_cache_scenario_3_links_network.node[5].content_store 	decision_ratio[5] 	0
scalar one_cache_scenario_3_links_network.node[6].core_layer 	interests[6] 	25690
scalar one_cache_scenario_3_links_network.node[6].core_layer 	repo_load[6] 	25690
scalar one_cache_scenario_3_links_network.node[6].core_layer 	data[6] 	0
scalar one_cache_scenario_3_links_network.node[6].content_store 	p_hit[6] 	0
scalar one_cache_scenario_3_links_network.node[6].content_store 	hits[6] 	0
scalar one_cache_scenario_3_links_network.node[6].content_store 	misses[6] 	25690
scalar one_cache_scenario_3_links_network.node[6].content_store 	decision_yes[6] 	0
scalar one_cache_scenario_3_links_network.node[6].content_store 	decision_no[6] 	25690
scalar one_cache_scenario_3_links_network.node[6].content_store 	decision_ratio[6] 	0
scalar one_cache_scenario_3_links_network.client[0] 	hdistance[0] 	1.3962026866103
scalar one_cache_scenario_3_links_network.client[0] 	downloads[0] 	179706
scalar one_cache_scenario_3_links_network.client[0] 	avg_time[0] 	0
scalar one_cache_scenario_3_links_network.client[0] 	interests_sent[0] 	179706
