version 2
run General-1-20150902-20:49:48-2314
attr C 1e3
attr D fix1
attr F spr
attr R lru_repr
attr a 1
attr brates 0.3_0.7_1.5_2.5_3.5
attr configname General
attr ctlg 1e5
attr datetime 20150902-20:49:48
attr experiment General
attr inifile omnetpp.ini
attr iterationvars "$net=abilene_nodelay, $rep=0, $lambda=100, $a=1, $ctlg=1e5, $brates=0.3_0.7_1.5_2.5_3.5, $F=spr, $ttl=1000, $D=fix1, $R=lru_repr, $proactiveprob=0.1, $C=1e3, $window=60, $variance=0.05, $mytime=180000"
attr iterationvars2 "$net=abilene_nodelay, $rep=0, $lambda=100, $a=1, $ctlg=1e5, $brates=0.3_0.7_1.5_2.5_3.5, $F=spr, $ttl=1000, $D=fix1, $R=lru_repr, $proactiveprob=0.1, $C=1e3, $window=60, $variance=0.05, $mytime=180000, $repetition=0"
attr lambda 100
attr measurement "$net=abilene_nodelay, $rep=0, $lambda=100, $a=1, $ctlg=1e5, $brates=0.3_0.7_1.5_2.5_3.5, $F=spr, $ttl=1000, $D=fix1, $R=lru_repr, $proactiveprob=0.1, $C=1e3, $window=60, $variance=0.05, $mytime=180000"
attr mytime 180000
attr net abilene_nodelay
attr network networks.${net=abilene_nodelay}_network
attr proactiveprob 0.1
attr processid 2314
attr rep 0
attr repetition 0
attr replication #0
attr resultdir results
attr runnumber 1
attr seedset 0
attr ttl 1000
attr variance 0.05
attr window 60

scalar . 	C 	1e3
scalar . 	a 	1
scalar . 	ctlg 	1e5
scalar . 	lambda 	100
scalar . 	mytime 	180000
scalar . 	proactiveprob 	0.1
scalar . 	rep 	0
scalar . 	ttl 	1000
scalar . 	variance 	0.05
scalar . 	window 	60
scalar abilene_nodelay_network.content_distribution 	repo-0 	5
scalar abilene_nodelay_network.content_distribution 	repo-1 	8
scalar abilene_nodelay_network.content_distribution 	repo-2 	9
scalar abilene_nodelay_network.content_distribution 	repo-3 	0
scalar abilene_nodelay_network.content_distribution 	repo-4 	1
scalar abilene_nodelay_network.content_distribution 	repo-5 	7
scalar abilene_nodelay_network.content_distribution 	repo-6 	6
scalar abilene_nodelay_network.content_distribution 	repo-7 	2
scalar abilene_nodelay_network.content_distribution 	repo-8 	4
scalar abilene_nodelay_network.content_distribution 	repo-9 	10
scalar abilene_nodelay_network.content_distribution 	repo-10 	3
scalar abilene_nodelay_network.content_distribution 	client-0 	10
scalar abilene_nodelay_network.content_distribution 	client-1 	9
scalar abilene_nodelay_network.content_distribution 	client-2 	8
scalar abilene_nodelay_network.content_distribution 	client-3 	7
scalar abilene_nodelay_network.content_distribution 	client-4 	3
scalar abilene_nodelay_network.content_distribution 	client-5 	6
scalar abilene_nodelay_network.content_distribution 	client-6 	5
scalar abilene_nodelay_network.content_distribution 	client-7 	1
scalar abilene_nodelay_network.content_distribution 	client-8 	4
scalar abilene_nodelay_network.content_distribution 	client-9 	0
scalar abilene_nodelay_network.content_distribution 	client-10 	2
scalar abilene_nodelay_network.content_distribution 	repo-0_card 	9071
scalar abilene_nodelay_network.content_distribution 	repo-0_price 	0
scalar abilene_nodelay_network.content_distribution 	repo-1_card 	8986
scalar abilene_nodelay_network.content_distribution 	repo-1_price 	0
scalar abilene_nodelay_network.content_distribution 	repo-2_card 	9050
scalar abilene_nodelay_network.content_distribution 	repo-2_price 	0
scalar abilene_nodelay_network.content_distribution 	repo-3_card 	8986
scalar abilene_nodelay_network.content_distribution 	repo-3_price 	0
scalar abilene_nodelay_network.content_distribution 	repo-4_card 	9064
scalar abilene_nodelay_network.content_distribution 	repo-4_price 	0
scalar abilene_nodelay_network.content_distribution 	repo-5_card 	9170
scalar abilene_nodelay_network.content_distribution 	repo-5_price 	0
scalar abilene_nodelay_network.content_distribution 	repo-6_card 	9151
scalar abilene_nodelay_network.content_distribution 	repo-6_price 	0
scalar abilene_nodelay_network.content_distribution 	repo-7_card 	9112
scalar abilene_nodelay_network.content_distribution 	repo-7_price 	0
scalar abilene_nodelay_network.content_distribution 	repo-8_card 	9132
scalar abilene_nodelay_network.content_distribution 	repo-8_price 	0
scalar abilene_nodelay_network.content_distribution 	repo-9_card 	9101
scalar abilene_nodelay_network.content_distribution 	repo-9_price 	0
scalar abilene_nodelay_network.content_distribution 	repo-10_card 	9177
scalar abilene_nodelay_network.content_distribution 	repo-10_price 	0
scalar abilene_nodelay_network.statistics 	stabilization_time 	36060
scalar abilene_nodelay_network.statistics 	p_hit 	0.41023907420067
scalar abilene_nodelay_network.statistics 	interests 	30457965
scalar abilene_nodelay_network.statistics 	data 	11884162.090909
scalar abilene_nodelay_network.statistics 	hdistance 	0.91414419800035
scalar abilene_nodelay_network.statistics 	avg_time 	0
scalar abilene_nodelay_network.statistics 	downloads 	197980075
scalar abilene_nodelay_network.statistics 	total_cost 	0
scalar abilene_nodelay_network.statistics 	total_replicas 	100000
scalar abilene_nodelay_network.statistics 	"representations_downloaded 0.494866:0.0599407:0.0395115:0.0329966:0.372685:" 	0
scalar abilene_nodelay_network.statistics 	"slots_per_representation 100:233:500:833:1167:" 	0
scalar abilene_nodelay_network.statistics 	inner_hit 	0.66225737110161
scalar abilene_nodelay_network.statistics 	execution_time 	7454
scalar abilene_nodelay_network.node[0].core_layer 	interests[0] 	22456502
scalar abilene_nodelay_network.node[0].core_layer 	repo_load[0] 	5322660
scalar abilene_nodelay_network.node[0].core_layer 	data[0] 	5447653
scalar abilene_nodelay_network.node[0].core_layer 	slots_sent[face$o[1]->client[0]] 	10574158352
scalar abilene_nodelay_network.node[0].core_layer 	slots_sent[face$o[2]->node[1]] 	421152648
scalar abilene_nodelay_network.node[0].core_layer 	slots_sent[face$o[3]->node[10]] 	130884390
scalar abilene_nodelay_network.node[0].content_store 	p_hit[0] 	0.52039222315212
scalar abilene_nodelay_network.node[0].content_store 	hits[0] 	11686189
scalar abilene_nodelay_network.node[0].content_store 	misses[0] 	10770313
scalar abilene_nodelay_network.node[0].content_store 	decision_yes[0] 	5447653
scalar abilene_nodelay_network.node[0].content_store 	decision_no[0] 	5322660
scalar abilene_nodelay_network.node[0].content_store 	decision_ratio[0] 	0.50580266330236
scalar abilene_nodelay_network.node[0].content_store 	"representation_breakdown[0] 7213:482:136:72:176:" 	0
scalar abilene_nodelay_network.node[0].proactive_component 	hdistance[0].proactive_component 	3.0290588436666
scalar abilene_nodelay_network.node[0].proactive_component 	downloads[0].proactive_component 	508279
scalar abilene_nodelay_network.node[0].proactive_component 	avg_time[0].proactive_component 	0
scalar abilene_nodelay_network.node[1].core_layer 	interests[1] 	34390425
scalar abilene_nodelay_network.node[1].core_layer 	repo_load[1] 	6505476
scalar abilene_nodelay_network.node[1].core_layer 	data[1] 	15264874
scalar abilene_nodelay_network.node[1].core_layer 	slots_sent[face$o[1]->client[1]] 	9075596502
scalar abilene_nodelay_network.node[1].core_layer 	slots_sent[face$o[2]->node[0]] 	668786444
scalar abilene_nodelay_network.node[1].core_layer 	slots_sent[face$o[3]->node[10]] 	511715490
scalar abilene_nodelay_network.node[1].core_layer 	slots_sent[face$o[4]->node[2]] 	1149922673
scalar abilene_nodelay_network.node[1].content_store 	p_hit[1] 	0.3669647874372
scalar abilene_nodelay_network.node[1].content_store 	hits[1] 	12620075
scalar abilene_nodelay_network.node[1].content_store 	misses[1] 	21770350
scalar abilene_nodelay_network.node[1].content_store 	decision_yes[1] 	15264874
scalar abilene_nodelay_network.node[1].content_store 	decision_no[1] 	6505476
scalar abilene_nodelay_network.node[1].content_store 	decision_ratio[1] 	0.70117724336081
scalar abilene_nodelay_network.node[1].content_store 	"representation_breakdown[1] 7405:513:155:82:138:" 	0
scalar abilene_nodelay_network.node[1].proactive_component 	hdistance[1].proactive_component 	2.6194159523025
scalar abilene_nodelay_network.node[1].proactive_component 	downloads[1].proactive_component 	795346
scalar abilene_nodelay_network.node[1].proactive_component 	avg_time[1].proactive_component 	0
scalar abilene_nodelay_network.node[2].core_layer 	interests[2] 	43485651
scalar abilene_nodelay_network.node[2].core_layer 	repo_load[2] 	7243943
scalar abilene_nodelay_network.node[2].core_layer 	data[2] 	22817649
scalar abilene_nodelay_network.node[2].core_layer 	slots_sent[face$o[1]->client[2]] 	9028263231
scalar abilene_nodelay_network.node[2].core_layer 	slots_sent[face$o[2]->node[1]] 	1388390417
scalar abilene_nodelay_network.node[2].core_layer 	slots_sent[face$o[3]->node[3]] 	1600639331
scalar abilene_nodelay_network.node[2].core_layer 	slots_sent[face$o[4]->node[8]] 	707923997
scalar abilene_nodelay_network.node[2].content_store 	p_hit[2] 	0.30870088618427
scalar abilene_nodelay_network.node[2].content_store 	hits[2] 	13424059
scalar abilene_nodelay_network.node[2].content_store 	misses[2] 	30061592
scalar abilene_nodelay_network.node[2].content_store 	decision_yes[2] 	22817649
scalar abilene_nodelay_network.node[2].content_store 	decision_no[2] 	7243943
scalar abilene_nodelay_network.node[2].content_store 	decision_ratio[2] 	0.7590299608883
scalar abilene_nodelay_network.node[2].content_store 	"representation_breakdown[2] 7432:527:154:81:134:" 	0
scalar abilene_nodelay_network.node[2].proactive_component 	hdistance[2].proactive_component 	2.5159051840414
scalar abilene_nodelay_network.node[2].proactive_component 	downloads[2].proactive_component 	885969
scalar abilene_nodelay_network.node[2].proactive_component 	avg_time[2].proactive_component 	0
scalar abilene_nodelay_network.node[3].core_layer 	interests[3] 	41442801
scalar abilene_nodelay_network.node[3].core_layer 	repo_load[3] 	6277576
scalar abilene_nodelay_network.node[3].core_layer 	data[3] 	21089966
scalar abilene_nodelay_network.node[3].core_layer 	slots_sent[face$o[1]->client[3]] 	9629728959
scalar abilene_nodelay_network.node[3].core_layer 	slots_sent[face$o[2]->node[2]] 	1567834148
scalar abilene_nodelay_network.node[3].core_layer 	slots_sent[face$o[3]->node[4]] 	1035987763
scalar abilene_nodelay_network.node[3].core_layer 	slots_sent[face$o[4]->node[7]] 	765855966
scalar abilene_nodelay_network.node[3].content_store 	p_hit[3] 	0.33963097716296
scalar abilene_nodelay_network.node[3].content_store 	hits[3] 	14075259
scalar abilene_nodelay_network.node[3].content_store 	misses[3] 	27367542
scalar abilene_nodelay_network.node[3].content_store 	decision_yes[3] 	21089966
scalar abilene_nodelay_network.node[3].content_store 	decision_no[3] 	6277576
scalar abilene_nodelay_network.node[3].content_store 	decision_ratio[3] 	0.77061966324926
scalar abilene_nodelay_network.node[3].content_store 	"representation_breakdown[3] 7325:508:150:83:147:" 	0
scalar abilene_nodelay_network.node[3].proactive_component 	hdistance[3].proactive_component 	2.5291556936197
scalar abilene_nodelay_network.node[3].proactive_component 	downloads[3].proactive_component 	907147
scalar abilene_nodelay_network.node[3].proactive_component 	avg_time[3].proactive_component 	0
scalar abilene_nodelay_network.node[4].core_layer 	interests[4] 	27980262
scalar abilene_nodelay_network.node[4].core_layer 	repo_load[4] 	5603032
scalar abilene_nodelay_network.node[4].core_layer 	data[4] 	9845424
scalar abilene_nodelay_network.node[4].core_layer 	slots_sent[face$o[1]->client[4]] 	10210759285
scalar abilene_nodelay_network.node[4].core_layer 	slots_sent[face$o[2]->node[3]] 	824389917
scalar abilene_nodelay_network.node[4].core_layer 	slots_sent[face$o[3]->node[5]] 	562203409
scalar abilene_nodelay_network.node[4].content_store 	p_hit[4] 	0.44788022356617
scalar abilene_nodelay_network.node[4].content_store 	hits[4] 	12531806
scalar abilene_nodelay_network.node[4].content_store 	misses[4] 	15448456
scalar abilene_nodelay_network.node[4].content_store 	decision_yes[4] 	9845424
scalar abilene_nodelay_network.node[4].content_store 	decision_no[4] 	5603032
scalar abilene_nodelay_network.node[4].content_store 	decision_ratio[4] 	0.63730796139109
scalar abilene_nodelay_network.node[4].content_store 	"representation_breakdown[4] 7183:504:132:76:173:" 	0
scalar abilene_nodelay_network.node[4].proactive_component 	hdistance[4].proactive_component 	2.7342722312569
scalar abilene_nodelay_network.node[4].proactive_component 	downloads[4].proactive_component 	651189
scalar abilene_nodelay_network.node[4].proactive_component 	avg_time[4].proactive_component 	0
scalar abilene_nodelay_network.node[5].core_layer 	interests[5] 	23584512
scalar abilene_nodelay_network.node[5].core_layer 	repo_load[5] 	6712180
scalar abilene_nodelay_network.node[5].core_layer 	data[5] 	6358183
scalar abilene_nodelay_network.node[5].core_layer 	slots_sent[face$o[1]->client[5]] 	9031186155
scalar abilene_nodelay_network.node[5].core_layer 	slots_sent[face$o[2]->node[4]] 	433695991
scalar abilene_nodelay_network.node[5].core_layer 	slots_sent[face$o[3]->node[6]] 	327767945
scalar abilene_nodelay_network.node[5].content_store 	p_hit[5] 	0.44580735865978
scalar abilene_nodelay_network.node[5].content_store 	hits[5] 	10514149
scalar abilene_nodelay_network.node[5].content_store 	misses[5] 	13070363
scalar abilene_nodelay_network.node[5].content_store 	decision_yes[5] 	6358183
scalar abilene_nodelay_network.node[5].content_store 	decision_no[5] 	6712180
scalar abilene_nodelay_network.node[5].content_store 	decision_ratio[5] 	0.48645802721776
scalar abilene_nodelay_network.node[5].content_store 	"representation_breakdown[5] 7215:504:131:71:174:" 	0
scalar abilene_nodelay_network.node[5].proactive_component 	hdistance[5].proactive_component 	2.9221150745743
scalar abilene_nodelay_network.node[5].proactive_component 	downloads[5].proactive_component 	533428
scalar abilene_nodelay_network.node[5].proactive_component 	avg_time[5].proactive_component 	0
scalar abilene_nodelay_network.node[6].core_layer 	interests[6] 	25661358
scalar abilene_nodelay_network.node[6].core_layer 	repo_load[6] 	5341016
scalar abilene_nodelay_network.node[6].core_layer 	data[6] 	8135038
scalar abilene_nodelay_network.node[6].core_layer 	slots_sent[face$o[1]->client[6]] 	10427648557
scalar abilene_nodelay_network.node[6].core_layer 	slots_sent[face$o[2]->node[5]] 	383486618
scalar abilene_nodelay_network.node[6].core_layer 	slots_sent[face$o[3]->node[7]] 	669328499
scalar abilene_nodelay_network.node[6].content_store 	p_hit[6] 	0.47485031774234
scalar abilene_nodelay_network.node[6].content_store 	hits[6] 	12185304
scalar abilene_nodelay_network.node[6].content_store 	misses[6] 	13476054
scalar abilene_nodelay_network.node[6].content_store 	decision_yes[6] 	8135038
scalar abilene_nodelay_network.node[6].content_store 	decision_no[6] 	5341016
scalar abilene_nodelay_network.node[6].content_store 	decision_ratio[6] 	0.60366617705747
scalar abilene_nodelay_network.node[6].content_store 	"representation_breakdown[6] 7130:524:129:74:176:" 	0
scalar abilene_nodelay_network.node[6].proactive_component 	hdistance[6].proactive_component 	2.7376099519897
scalar abilene_nodelay_network.node[6].proactive_component 	downloads[6].proactive_component 	580708
scalar abilene_nodelay_network.node[6].proactive_component 	avg_time[6].proactive_component 	0
scalar abilene_nodelay_network.node[7].core_layer 	interests[7] 	33063674
scalar abilene_nodelay_network.node[7].core_layer 	repo_load[7] 	6149770
scalar abilene_nodelay_network.node[7].core_layer 	data[7] 	13509024
scalar abilene_nodelay_network.node[7].core_layer 	slots_sent[face$o[1]->client[7]] 	10218203608
scalar abilene_nodelay_network.node[7].core_layer 	slots_sent[face$o[2]->node[3]] 	646053854
scalar abilene_nodelay_network.node[7].core_layer 	slots_sent[face$o[3]->node[6]] 	888263281
scalar abilene_nodelay_network.node[7].core_layer 	slots_sent[face$o[4]->node[8]] 	602926262
scalar abilene_nodelay_network.node[7].content_store 	p_hit[7] 	0.40542620883572
scalar abilene_nodelay_network.node[7].content_store 	hits[7] 	13404880
scalar abilene_nodelay_network.node[7].content_store 	misses[7] 	19658794
scalar abilene_nodelay_network.node[7].content_store 	decision_yes[7] 	13509024
scalar abilene_nodelay_network.node[7].content_store 	decision_no[7] 	6149770
scalar abilene_nodelay_network.node[7].content_store 	decision_ratio[7] 	0.68717460491218
scalar abilene_nodelay_network.node[7].content_store 	"representation_breakdown[7] 7077:558:148:85:158:" 	0
scalar abilene_nodelay_network.node[7].proactive_component 	hdistance[7].proactive_component 	2.4601193433473
scalar abilene_nodelay_network.node[7].proactive_component 	downloads[7].proactive_component 	756808
scalar abilene_nodelay_network.node[7].proactive_component 	avg_time[7].proactive_component 	0
scalar abilene_nodelay_network.node[8].core_layer 	interests[8] 	31923083
scalar abilene_nodelay_network.node[8].core_layer 	repo_load[8] 	5738398
scalar abilene_nodelay_network.node[8].core_layer 	data[8] 	12809079
scalar abilene_nodelay_network.node[8].core_layer 	slots_sent[face$o[1]->client[8]] 	10141349062
scalar abilene_nodelay_network.node[8].core_layer 	slots_sent[face$o[2]->node[2]] 	577801150
scalar abilene_nodelay_network.node[8].core_layer 	slots_sent[face$o[3]->node[7]] 	576581550
scalar abilene_nodelay_network.node[8].core_layer 	slots_sent[face$o[4]->node[9]] 	804225643
scalar abilene_nodelay_network.node[8].content_store 	p_hit[8] 	0.41899480698653
scalar abilene_nodelay_network.node[8].content_store 	hits[8] 	13375606
scalar abilene_nodelay_network.node[8].content_store 	misses[8] 	18547477
scalar abilene_nodelay_network.node[8].content_store 	decision_yes[8] 	12809079
scalar abilene_nodelay_network.node[8].content_store 	decision_no[8] 	5738398
scalar abilene_nodelay_network.node[8].content_store 	decision_ratio[8] 	0.69061031858942
scalar abilene_nodelay_network.node[8].content_store 	"representation_breakdown[8] 7218:507:170:79:151:" 	0
scalar abilene_nodelay_network.node[8].proactive_component 	hdistance[8].proactive_component 	2.3737077386841
scalar abilene_nodelay_network.node[8].proactive_component 	downloads[8].proactive_component 	769291
scalar abilene_nodelay_network.node[8].proactive_component 	avg_time[8].proactive_component 	0
scalar abilene_nodelay_network.node[9].core_layer 	interests[9] 	25727232
scalar abilene_nodelay_network.node[9].core_layer 	repo_load[9] 	5576982
scalar abilene_nodelay_network.node[9].core_layer 	data[9] 	8157361
scalar abilene_nodelay_network.node[9].core_layer 	slots_sent[face$o[1]->client[9]] 	10073530516
scalar abilene_nodelay_network.node[9].core_layer 	slots_sent[face$o[2]->node[10]] 	446583481
scalar abilene_nodelay_network.node[9].core_layer 	slots_sent[face$o[3]->node[8]] 	606656688
scalar abilene_nodelay_network.node[9].content_store 	p_hit[9] 	0.46615543405525
scalar abilene_nodelay_network.node[9].content_store 	hits[9] 	11992889
scalar abilene_nodelay_network.node[9].content_store 	misses[9] 	13734343
scalar abilene_nodelay_network.node[9].content_store 	decision_yes[9] 	8157361
scalar abilene_nodelay_network.node[9].content_store 	decision_no[9] 	5576982
scalar abilene_nodelay_network.node[9].content_store 	decision_ratio[9] 	0.59393893104315
scalar abilene_nodelay_network.node[9].content_store 	"representation_breakdown[9] 7362:512:156:64:154:" 	0
scalar abilene_nodelay_network.node[9].proactive_component 	hdistance[9].proactive_component 	2.6400314862614
scalar abilene_nodelay_network.node[9].proactive_component 	downloads[9].proactive_component 	600897
scalar abilene_nodelay_network.node[9].proactive_component 	avg_time[9].proactive_component 	0
scalar abilene_nodelay_network.node[10].core_layer 	interests[10] 	25322115
scalar abilene_nodelay_network.node[10].core_layer 	repo_load[10] 	6395278
scalar abilene_nodelay_network.node[10].core_layer 	data[10] 	7291532
scalar abilene_nodelay_network.node[10].core_layer 	slots_sent[face$o[1]->client[10]] 	9611143448
scalar abilene_nodelay_network.node[10].core_layer 	slots_sent[face$o[2]->node[0]] 	161237436
scalar abilene_nodelay_network.node[10].core_layer 	slots_sent[face$o[3]->node[1]] 	424508266
scalar abilene_nodelay_network.node[10].core_layer 	slots_sent[face$o[4]->node[9]] 	402226786
scalar abilene_nodelay_network.node[10].content_store 	p_hit[10] 	0.45949183154725
scalar abilene_nodelay_network.node[10].content_store 	hits[10] 	11635305
scalar abilene_nodelay_network.node[10].content_store 	misses[10] 	13686810
scalar abilene_nodelay_network.node[10].content_store 	decision_yes[10] 	7291532
scalar abilene_nodelay_network.node[10].content_store 	decision_no[10] 	6395278
scalar abilene_nodelay_network.node[10].content_store 	decision_ratio[10] 	0.53274152267767
scalar abilene_nodelay_network.node[10].content_store 	"representation_breakdown[10] 7325:468:164:68:160:" 	0
scalar abilene_nodelay_network.node[10].proactive_component 	hdistance[10].proactive_component 	2.5969038789034
scalar abilene_nodelay_network.node[10].proactive_component 	downloads[10].proactive_component 	611281
scalar abilene_nodelay_network.node[10].proactive_component 	avg_time[10].proactive_component 	0
scalar abilene_nodelay_network.client[0] 	hdistance[0].real 	0.97492075920478
scalar abilene_nodelay_network.client[0] 	downloads[0].real 	17997674
scalar abilene_nodelay_network.client[0] 	avg_time[0].real 	0
scalar abilene_nodelay_network.client[1] 	hdistance[1].real 	0.94377527624399
scalar abilene_nodelay_network.client[1] 	downloads[1].real 	17997136
scalar abilene_nodelay_network.client[1] 	avg_time[1].real 	0
scalar abilene_nodelay_network.client[2] 	hdistance[2].real 	0.86996606186811
scalar abilene_nodelay_network.client[2] 	downloads[2].real 	17996571
scalar abilene_nodelay_network.client[2] 	avg_time[2].real 	0
scalar abilene_nodelay_network.client[3] 	hdistance[3].real 	0.84651721271236
scalar abilene_nodelay_network.client[3] 	downloads[3].real 	17999836
scalar abilene_nodelay_network.client[3] 	avg_time[3].real 	0
scalar abilene_nodelay_network.client[4] 	hdistance[4].real 	0.94270422369361
scalar abilene_nodelay_network.client[4] 	downloads[4].real 	18003910
scalar abilene_nodelay_network.client[4] 	avg_time[4].real 	0
scalar abilene_nodelay_network.client[5] 	hdistance[5].real 	1.0534878949107
scalar abilene_nodelay_network.client[5] 	downloads[5].real 	17998091
scalar abilene_nodelay_network.client[5] 	avg_time[5].real 	0
scalar abilene_nodelay_network.client[6] 	hdistance[6].real 	0.94718599328993
scalar abilene_nodelay_network.client[6] 	downloads[6].real 	18002800
scalar abilene_nodelay_network.client[6] 	avg_time[6].real 	0
scalar abilene_nodelay_network.client[7] 	hdistance[7].real 	0.82715578445222
scalar abilene_nodelay_network.client[7] 	downloads[7].real 	17996674
scalar abilene_nodelay_network.client[7] 	avg_time[7].real 	0
scalar abilene_nodelay_network.client[8] 	hdistance[8].real 	0.79957210074641
scalar abilene_nodelay_network.client[8] 	downloads[8].real 	17994890
scalar abilene_nodelay_network.client[8] 	avg_time[8].real 	0
scalar abilene_nodelay_network.client[9] 	hdistance[9].real 	0.90077668148758
scalar abilene_nodelay_network.client[9] 	downloads[9].real 	17998884
scalar abilene_nodelay_network.client[9] 	avg_time[9].real 	0
scalar abilene_nodelay_network.client[10] 	hdistance[10].real 	0.94952418939416
scalar abilene_nodelay_network.client[10] 	downloads[10].real 	17993609
scalar abilene_nodelay_network.client[10] 	avg_time[10].real 	0
