version 2
run General-9-20150723-15:50:14-25355
attr C 1e4
attr D lce
attr F spr
attr R partitioneds
attr a 1
attr brates 0.3_0.7_1.5_2.5_3.5
attr configname General
attr ctlg 1e6
attr datetime 20150723-15:50:14
attr experiment General
attr inifile omnetpp.ini
attr iterationvars "$net=abilene_nodelay, $rep=4, $lambda=100, $a=1, $ctlg=1e6, $brates=0.3_0.7_1.5_2.5_3.5, $F=spr, $ttl=1000, $D=lce, $R=partitioneds, $C=1e4, $window=60, $variance=0.05, $mytime=1800"
attr iterationvars2 "$net=abilene_nodelay, $rep=4, $lambda=100, $a=1, $ctlg=1e6, $brates=0.3_0.7_1.5_2.5_3.5, $F=spr, $ttl=1000, $D=lce, $R=partitioneds, $C=1e4, $window=60, $variance=0.05, $mytime=1800, $repetition=0"
attr lambda 100
attr measurement "$net=abilene_nodelay, $rep=4, $lambda=100, $a=1, $ctlg=1e6, $brates=0.3_0.7_1.5_2.5_3.5, $F=spr, $ttl=1000, $D=lce, $R=partitioneds, $C=1e4, $window=60, $variance=0.05, $mytime=1800"
attr mytime 1800
attr net abilene_nodelay
attr network networks.${net=abilene_nodelay}_network
attr processid 25355
attr rep 4
attr repetition 0
attr replication #0
attr resultdir results
attr runnumber 9
attr seedset 4
attr ttl 1000
attr variance 0.05
attr window 60

scalar . 	C 	1e4
scalar . 	a 	1
scalar . 	ctlg 	1e6
scalar . 	lambda 	100
scalar . 	mytime 	1800
scalar . 	rep 	4
scalar . 	ttl 	1000
scalar . 	variance 	0.05
scalar . 	window 	60
scalar abilene_nodelay_network.content_distribution 	repo-0 	2
scalar abilene_nodelay_network.content_distribution 	repo-1 	0
scalar abilene_nodelay_network.content_distribution 	repo-2 	10
scalar abilene_nodelay_network.content_distribution 	repo-3 	6
scalar abilene_nodelay_network.content_distribution 	repo-4 	4
scalar abilene_nodelay_network.content_distribution 	repo-5 	9
scalar abilene_nodelay_network.content_distribution 	repo-6 	3
scalar abilene_nodelay_network.content_distribution 	repo-7 	5
scalar abilene_nodelay_network.content_distribution 	repo-8 	1
scalar abilene_nodelay_network.content_distribution 	repo-9 	8
scalar abilene_nodelay_network.content_distribution 	repo-10 	7
scalar abilene_nodelay_network.content_distribution 	client-0 	3
scalar abilene_nodelay_network.content_distribution 	client-1 	5
scalar abilene_nodelay_network.content_distribution 	client-2 	8
scalar abilene_nodelay_network.content_distribution 	client-3 	10
scalar abilene_nodelay_network.content_distribution 	client-4 	1
scalar abilene_nodelay_network.content_distribution 	client-5 	7
scalar abilene_nodelay_network.content_distribution 	client-6 	6
scalar abilene_nodelay_network.content_distribution 	client-7 	0
scalar abilene_nodelay_network.content_distribution 	client-8 	4
scalar abilene_nodelay_network.content_distribution 	client-9 	9
scalar abilene_nodelay_network.content_distribution 	client-10 	2
scalar abilene_nodelay_network.content_distribution 	repo-0_card 	90884
scalar abilene_nodelay_network.content_distribution 	repo-0_price 	0
scalar abilene_nodelay_network.content_distribution 	repo-1_card 	90935
scalar abilene_nodelay_network.content_distribution 	repo-1_price 	0
scalar abilene_nodelay_network.content_distribution 	repo-2_card 	91184
scalar abilene_nodelay_network.content_distribution 	repo-2_price 	0
scalar abilene_nodelay_network.content_distribution 	repo-3_card 	90565
scalar abilene_nodelay_network.content_distribution 	repo-3_price 	0
scalar abilene_nodelay_network.content_distribution 	repo-4_card 	90993
scalar abilene_nodelay_network.content_distribution 	repo-4_price 	0
scalar abilene_nodelay_network.content_distribution 	repo-5_card 	90652
scalar abilene_nodelay_network.content_distribution 	repo-5_price 	0
scalar abilene_nodelay_network.content_distribution 	repo-6_card 	91293
scalar abilene_nodelay_network.content_distribution 	repo-6_price 	0
scalar abilene_nodelay_network.content_distribution 	repo-7_card 	90684
scalar abilene_nodelay_network.content_distribution 	repo-7_price 	0
scalar abilene_nodelay_network.content_distribution 	repo-8_card 	90808
scalar abilene_nodelay_network.content_distribution 	repo-8_price 	0
scalar abilene_nodelay_network.content_distribution 	repo-9_card 	90944
scalar abilene_nodelay_network.content_distribution 	repo-9_price 	0
scalar abilene_nodelay_network.content_distribution 	repo-10_card 	91058
scalar abilene_nodelay_network.content_distribution 	repo-10_price 	0
scalar abilene_nodelay_network.statistics 	stabilization_time 	36060
scalar abilene_nodelay_network.statistics 	p_hit 	0.32739806401283
scalar abilene_nodelay_network.statistics 	interests 	413695.45454545
scalar abilene_nodelay_network.statistics 	data 	186129.90909091
scalar abilene_nodelay_network.statistics 	hdistance 	0.96695161076316
scalar abilene_nodelay_network.statistics 	avg_time 	0
scalar abilene_nodelay_network.statistics 	downloads 	1977867
scalar abilene_nodelay_network.statistics 	total_cost 	0
scalar abilene_nodelay_network.statistics 	total_replicas 	1000000
scalar abilene_nodelay_network.statistics 	"representations_downloaded 0.395775:0.0601714:0.0451178:0.0398141:0.459121:" 	0
scalar abilene_nodelay_network.statistics 	"slots_per_representation 100:233:500:833:1167:" 	0
scalar abilene_nodelay_network.statistics 	inner_hit 	0.48765665234316
scalar abilene_nodelay_network.statistics 	execution_time 	1940
scalar abilene_nodelay_network.node[0].core_layer 	interests[0] 	278636
scalar abilene_nodelay_network.node[0].core_layer 	repo_load[0] 	101352
scalar abilene_nodelay_network.node[0].core_layer 	data[0] 	79873
scalar abilene_nodelay_network.node[0].core_layer 	slots_sent[face$o[1]->client[0]] 	106560544
scalar abilene_nodelay_network.node[0].core_layer 	slots_sent[face$o[2]->node[1]] 	20433853
scalar abilene_nodelay_network.node[0].core_layer 	slots_sent[face$o[3]->node[10]] 	5246325
scalar abilene_nodelay_network.node[0].content_store 	p_hit[0] 	0.34959947745446
scalar abilene_nodelay_network.node[0].content_store 	hits[0] 	97411
scalar abilene_nodelay_network.node[0].content_store 	misses[0] 	181225
scalar abilene_nodelay_network.node[0].content_store 	decision_yes[0] 	79873
scalar abilene_nodelay_network.node[0].content_store 	decision_no[0] 	101352
scalar abilene_nodelay_network.node[0].content_store 	decision_ratio[0] 	0.44073941233274
scalar abilene_nodelay_network.node[0].content_store 	"representation_breakdown[0] 0x7fff111233f8:0x7fff111233f8:0x7fff111233f8:0x7fff111233f8:0x7fff111233f8:" 	0
scalar abilene_nodelay_network.node[0].proactive_component 	hdistance[0].proactive_component 	2.6448398820916
scalar abilene_nodelay_network.node[0].proactive_component 	downloads[0].proactive_component 	553311
scalar abilene_nodelay_network.node[0].proactive_component 	avg_time[0].proactive_component 	0
scalar abilene_nodelay_network.node[1].core_layer 	interests[1] 	482001
scalar abilene_nodelay_network.node[1].core_layer 	repo_load[1] 	97575
scalar abilene_nodelay_network.node[1].core_layer 	data[1] 	243549
scalar abilene_nodelay_network.node[1].core_layer 	slots_sent[face$o[1]->client[1]] 	109765950
scalar abilene_nodelay_network.node[1].core_layer 	slots_sent[face$o[2]->node[0]] 	23826341
scalar abilene_nodelay_network.node[1].core_layer 	slots_sent[face$o[3]->node[10]] 	17874733
scalar abilene_nodelay_network.node[1].core_layer 	slots_sent[face$o[4]->node[2]] 	48843835
scalar abilene_nodelay_network.node[1].content_store 	p_hit[1] 	0.29227532722961
scalar abilene_nodelay_network.node[1].content_store 	hits[1] 	140877
scalar abilene_nodelay_network.node[1].content_store 	misses[1] 	341124
scalar abilene_nodelay_network.node[1].content_store 	decision_yes[1] 	243549
scalar abilene_nodelay_network.node[1].content_store 	decision_no[1] 	97575
scalar abilene_nodelay_network.node[1].content_store 	decision_ratio[1] 	0.71396031941464
scalar abilene_nodelay_network.node[1].content_store 	"representation_breakdown[1] 0x7fff111233f8:0x7fff111233f8:0x7fff111233f8:0x7fff111233f8:0x7fff111233f8:" 	0
scalar abilene_nodelay_network.node[1].proactive_component 	hdistance[1].proactive_component 	2.2152187852651
scalar abilene_nodelay_network.node[1].proactive_component 	downloads[1].proactive_component 	1182118
scalar abilene_nodelay_network.node[1].proactive_component 	avg_time[1].proactive_component 	0
scalar abilene_nodelay_network.node[2].core_layer 	interests[2] 	633223
scalar abilene_nodelay_network.node[2].core_layer 	repo_load[2] 	91955
scalar abilene_nodelay_network.node[2].core_layer 	data[2] 	367327
scalar abilene_nodelay_network.node[2].core_layer 	slots_sent[face$o[1]->client[2]] 	113382521
scalar abilene_nodelay_network.node[2].core_layer 	slots_sent[face$o[2]->node[1]] 	52002922
scalar abilene_nodelay_network.node[2].core_layer 	slots_sent[face$o[3]->node[3]] 	61303230
scalar abilene_nodelay_network.node[2].core_layer 	slots_sent[face$o[4]->node[8]] 	24698901
scalar abilene_nodelay_network.node[2].content_store 	p_hit[2] 	0.274691538368
scalar abilene_nodelay_network.node[2].content_store 	hits[2] 	173941
scalar abilene_nodelay_network.node[2].content_store 	misses[2] 	459282
scalar abilene_nodelay_network.node[2].content_store 	decision_yes[2] 	367327
scalar abilene_nodelay_network.node[2].content_store 	decision_no[2] 	91955
scalar abilene_nodelay_network.node[2].content_store 	decision_ratio[2] 	0.79978531708188
scalar abilene_nodelay_network.node[2].content_store 	"representation_breakdown[2] 0x7fff111233f8:0x7fff111233f8:0x7fff111233f8:0x7fff111233f8:0x7fff111233f8:" 	0
scalar abilene_nodelay_network.node[2].proactive_component 	hdistance[2].proactive_component 	2.0607938304174
scalar abilene_nodelay_network.node[2].proactive_component 	downloads[2].proactive_component 	1633044
scalar abilene_nodelay_network.node[2].proactive_component 	avg_time[2].proactive_component 	0
scalar abilene_nodelay_network.node[3].core_layer 	interests[3] 	599269
scalar abilene_nodelay_network.node[3].core_layer 	repo_load[3] 	94958
scalar abilene_nodelay_network.node[3].core_layer 	data[3] 	334848
scalar abilene_nodelay_network.node[3].core_layer 	slots_sent[face$o[1]->client[3]] 	115096133
scalar abilene_nodelay_network.node[3].core_layer 	slots_sent[face$o[2]->node[2]] 	62529963
scalar abilene_nodelay_network.node[3].core_layer 	slots_sent[face$o[3]->node[4]] 	37932551
scalar abilene_nodelay_network.node[3].core_layer 	slots_sent[face$o[4]->node[7]] 	26957549
scalar abilene_nodelay_network.node[3].content_store 	p_hit[3] 	0.28278285711425
scalar abilene_nodelay_network.node[3].content_store 	hits[3] 	169463
scalar abilene_nodelay_network.node[3].content_store 	misses[3] 	429806
scalar abilene_nodelay_network.node[3].content_store 	decision_yes[3] 	334848
scalar abilene_nodelay_network.node[3].content_store 	decision_no[3] 	94958
scalar abilene_nodelay_network.node[3].content_store 	decision_ratio[3] 	0.77906776545697
scalar abilene_nodelay_network.node[3].content_store 	"representation_breakdown[3] 0x7fff111233f8:0x7fff111233f8:0x7fff111233f8:0x7fff111233f8:0x7fff111233f8:" 	0
scalar abilene_nodelay_network.node[3].proactive_component 	hdistance[3].proactive_component 	2.0830716908112
scalar abilene_nodelay_network.node[3].proactive_component 	downloads[3].proactive_component 	1534855
scalar abilene_nodelay_network.node[3].proactive_component 	avg_time[3].proactive_component 	0
scalar abilene_nodelay_network.node[4].core_layer 	interests[4] 	374886
scalar abilene_nodelay_network.node[4].core_layer 	repo_load[4] 	91077
scalar abilene_nodelay_network.node[4].core_layer 	data[4] 	153723
scalar abilene_nodelay_network.node[4].core_layer 	slots_sent[face$o[1]->client[4]] 	118050294
scalar abilene_nodelay_network.node[4].core_layer 	slots_sent[face$o[2]->node[3]] 	35786868
scalar abilene_nodelay_network.node[4].core_layer 	slots_sent[face$o[3]->node[5]] 	20789011
scalar abilene_nodelay_network.node[4].content_store 	p_hit[4] 	0.34700148845249
scalar abilene_nodelay_network.node[4].content_store 	hits[4] 	130086
scalar abilene_nodelay_network.node[4].content_store 	misses[4] 	244800
scalar abilene_nodelay_network.node[4].content_store 	decision_yes[4] 	153723
scalar abilene_nodelay_network.node[4].content_store 	decision_no[4] 	91077
scalar abilene_nodelay_network.node[4].content_store 	decision_ratio[4] 	0.62795343137255
scalar abilene_nodelay_network.node[4].content_store 	"representation_breakdown[4] 0x7fff111233f8:0x7fff111233f8:0x7fff111233f8:0x7fff111233f8:0x7fff111233f8:" 	0
scalar abilene_nodelay_network.node[4].proactive_component 	hdistance[4].proactive_component 	2.3304922006937
scalar abilene_nodelay_network.node[4].proactive_component 	downloads[4].proactive_component 	881104
scalar abilene_nodelay_network.node[4].proactive_component 	avg_time[4].proactive_component 	0
scalar abilene_nodelay_network.node[5].core_layer 	interests[5] 	298481
scalar abilene_nodelay_network.node[5].core_layer 	repo_load[5] 	83955
scalar abilene_nodelay_network.node[5].core_layer 	data[5] 	95658
scalar abilene_nodelay_network.node[5].core_layer 	slots_sent[face$o[1]->client[5]] 	122818529
scalar abilene_nodelay_network.node[5].core_layer 	slots_sent[face$o[2]->node[4]] 	18232973
scalar abilene_nodelay_network.node[5].core_layer 	slots_sent[face$o[3]->node[6]] 	13455212
scalar abilene_nodelay_network.node[5].content_store 	p_hit[5] 	0.39824310425119
scalar abilene_nodelay_network.node[5].content_store 	hits[5] 	118868
scalar abilene_nodelay_network.node[5].content_store 	misses[5] 	179613
scalar abilene_nodelay_network.node[5].content_store 	decision_yes[5] 	95658
scalar abilene_nodelay_network.node[5].content_store 	decision_no[5] 	83955
scalar abilene_nodelay_network.node[5].content_store 	decision_ratio[5] 	0.53257837684355
scalar abilene_nodelay_network.node[5].content_store 	"representation_breakdown[5] 0x7fff111233f8:0x7fff111233f8:0x7fff111233f8:0x7fff111233f8:0x7fff111233f8:" 	0
scalar abilene_nodelay_network.node[5].proactive_component 	hdistance[5].proactive_component 	2.3600598921387
scalar abilene_nodelay_network.node[5].proactive_component 	downloads[5].proactive_component 	649167
scalar abilene_nodelay_network.node[5].proactive_component 	avg_time[5].proactive_component 	0
scalar abilene_nodelay_network.node[6].core_layer 	interests[6] 	334268
scalar abilene_nodelay_network.node[6].core_layer 	repo_load[6] 	83794
scalar abilene_nodelay_network.node[6].core_layer 	data[6] 	124338
scalar abilene_nodelay_network.node[6].core_layer 	slots_sent[face$o[1]->client[6]] 	121104306
scalar abilene_nodelay_network.node[6].core_layer 	slots_sent[face$o[2]->node[5]] 	14051677
scalar abilene_nodelay_network.node[6].core_layer 	slots_sent[face$o[3]->node[7]] 	28878000
scalar abilene_nodelay_network.node[6].content_store 	p_hit[6] 	0.37734991084998
scalar abilene_nodelay_network.node[6].content_store 	hits[6] 	126136
scalar abilene_nodelay_network.node[6].content_store 	misses[6] 	208132
scalar abilene_nodelay_network.node[6].content_store 	decision_yes[6] 	124338
scalar abilene_nodelay_network.node[6].content_store 	decision_no[6] 	83794
scalar abilene_nodelay_network.node[6].content_store 	decision_ratio[6] 	0.59739972709627
scalar abilene_nodelay_network.node[6].content_store 	"representation_breakdown[6] 0x7fff111233f8:0x7fff111233f8:0x7fff111233f8:0x7fff111233f8:0x7fff111233f8:" 	0
scalar abilene_nodelay_network.node[6].proactive_component 	hdistance[6].proactive_component 	2.2663041383225
scalar abilene_nodelay_network.node[6].proactive_component 	downloads[6].proactive_component 	778238
scalar abilene_nodelay_network.node[6].proactive_component 	avg_time[6].proactive_component 	0
scalar abilene_nodelay_network.node[7].core_layer 	interests[7] 	452788
scalar abilene_nodelay_network.node[7].core_layer 	repo_load[7] 	94781
scalar abilene_nodelay_network.node[7].core_layer 	data[7] 	212431
scalar abilene_nodelay_network.node[7].core_layer 	slots_sent[face$o[1]->client[7]] 	116461347
scalar abilene_nodelay_network.node[7].core_layer 	slots_sent[face$o[2]->node[3]] 	25074906
scalar abilene_nodelay_network.node[7].core_layer 	slots_sent[face$o[3]->node[6]] 	31740581
scalar abilene_nodelay_network.node[7].core_layer 	slots_sent[face$o[4]->node[8]] 	22690043
scalar abilene_nodelay_network.node[7].content_store 	p_hit[7] 	0.32151028737511
scalar abilene_nodelay_network.node[7].content_store 	hits[7] 	145576
scalar abilene_nodelay_network.node[7].content_store 	misses[7] 	307212
scalar abilene_nodelay_network.node[7].content_store 	decision_yes[7] 	212431
scalar abilene_nodelay_network.node[7].content_store 	decision_no[7] 	94781
scalar abilene_nodelay_network.node[7].content_store 	decision_ratio[7] 	0.69148015051495
scalar abilene_nodelay_network.node[7].content_store 	"representation_breakdown[7] 0x7fff111233f8:0x7fff111233f8:0x7fff111233f8:0x7fff111233f8:0x7fff111233f8:" 	0
scalar abilene_nodelay_network.node[7].proactive_component 	hdistance[7].proactive_component 	2.0633005456943
scalar abilene_nodelay_network.node[7].proactive_component 	downloads[7].proactive_component 	1159990
scalar abilene_nodelay_network.node[7].proactive_component 	avg_time[7].proactive_component 	0
scalar abilene_nodelay_network.node[8].core_layer 	interests[8] 	436120
scalar abilene_nodelay_network.node[8].core_layer 	repo_load[8] 	96416
scalar abilene_nodelay_network.node[8].core_layer 	data[8] 	199324
scalar abilene_nodelay_network.node[8].core_layer 	slots_sent[face$o[1]->client[8]] 	114827740
scalar abilene_nodelay_network.node[8].core_layer 	slots_sent[face$o[2]->node[2]] 	22506371
scalar abilene_nodelay_network.node[8].core_layer 	slots_sent[face$o[3]->node[7]] 	22429572
scalar abilene_nodelay_network.node[8].core_layer 	slots_sent[face$o[4]->node[9]] 	29068018
scalar abilene_nodelay_network.node[8].content_store 	p_hit[8] 	0.32188388516922
scalar abilene_nodelay_network.node[8].content_store 	hits[8] 	140380
scalar abilene_nodelay_network.node[8].content_store 	misses[8] 	295740
scalar abilene_nodelay_network.node[8].content_store 	decision_yes[8] 	199324
scalar abilene_nodelay_network.node[8].content_store 	decision_no[8] 	96416
scalar abilene_nodelay_network.node[8].content_store 	decision_ratio[8] 	0.67398390478123
scalar abilene_nodelay_network.node[8].content_store 	"representation_breakdown[8] 0x7fff111233f8:0x7fff111233f8:0x7fff111233f8:0x7fff111233f8:0x7fff111233f8:" 	0
scalar abilene_nodelay_network.node[8].proactive_component 	hdistance[8].proactive_component 	2.0380554999703
scalar abilene_nodelay_network.node[8].proactive_component 	downloads[8].proactive_component 	1109406
scalar abilene_nodelay_network.node[8].proactive_component 	avg_time[8].proactive_component 	0
scalar abilene_nodelay_network.node[9].core_layer 	interests[9] 	335484
scalar abilene_nodelay_network.node[9].core_layer 	repo_load[9] 	89080
scalar abilene_nodelay_network.node[9].core_layer 	data[9] 	125449
scalar abilene_nodelay_network.node[9].core_layer 	slots_sent[face$o[1]->client[9]] 	114946185
scalar abilene_nodelay_network.node[9].core_layer 	slots_sent[face$o[2]->node[10]] 	16666311
scalar abilene_nodelay_network.node[9].core_layer 	slots_sent[face$o[3]->node[8]] 	26273162
scalar abilene_nodelay_network.node[9].content_store 	p_hit[9] 	0.36053880363892
scalar abilene_nodelay_network.node[9].content_store 	hits[9] 	120955
scalar abilene_nodelay_network.node[9].content_store 	misses[9] 	214529
scalar abilene_nodelay_network.node[9].content_store 	decision_yes[9] 	125449
scalar abilene_nodelay_network.node[9].content_store 	decision_no[9] 	89080
scalar abilene_nodelay_network.node[9].content_store 	decision_ratio[9] 	0.58476476373824
scalar abilene_nodelay_network.node[9].content_store 	"representation_breakdown[9] 0x7fff111233f8:0x7fff111233f8:0x7fff111233f8:0x7fff111233f8:0x7fff111233f8:" 	0
scalar abilene_nodelay_network.node[9].proactive_component 	hdistance[9].proactive_component 	2.1641540996007
scalar abilene_nodelay_network.node[9].proactive_component 	downloads[9].proactive_component 	787906
scalar abilene_nodelay_network.node[9].proactive_component 	avg_time[9].proactive_component 	0
scalar abilene_nodelay_network.node[10].core_layer 	interests[10] 	325494
scalar abilene_nodelay_network.node[10].core_layer 	repo_load[10] 	88404
scalar abilene_nodelay_network.node[10].core_layer 	data[10] 	110909
scalar abilene_nodelay_network.node[10].core_layer 	slots_sent[face$o[1]->client[10]] 	122940392
scalar abilene_nodelay_network.node[10].core_layer 	slots_sent[face$o[2]->node[0]] 	5516155
scalar abilene_nodelay_network.node[10].core_layer 	slots_sent[face$o[3]->node[1]] 	16310869
scalar abilene_nodelay_network.node[10].core_layer 	slots_sent[face$o[4]->node[9]] 	16228175
scalar abilene_nodelay_network.node[10].content_store 	p_hit[10] 	0.3876599875881
scalar abilene_nodelay_network.node[10].content_store 	hits[10] 	126181
scalar abilene_nodelay_network.node[10].content_store 	misses[10] 	199313
scalar abilene_nodelay_network.node[10].content_store 	decision_yes[10] 	110909
scalar abilene_nodelay_network.node[10].content_store 	decision_no[10] 	88404
scalar abilene_nodelay_network.node[10].content_store 	decision_ratio[10] 	0.55645642782959
scalar abilene_nodelay_network.node[10].content_store 	"representation_breakdown[10] 0x7fff111233f8:0x7fff111233f8:0x7fff111233f8:0x7fff111233f8:0x7fff111233f8:" 	0
scalar abilene_nodelay_network.node[10].proactive_component 	hdistance[10].proactive_component 	2.2174401585707
scalar abilene_nodelay_network.node[10].proactive_component 	downloads[10].proactive_component 	761805
scalar abilene_nodelay_network.node[10].proactive_component 	avg_time[10].proactive_component 	0
scalar abilene_nodelay_network.client[0] 	hdistance[0].real 	1.1119067194028
scalar abilene_nodelay_network.client[0] 	downloads[0].real 	180016
scalar abilene_nodelay_network.client[0] 	avg_time[0].real 	0
scalar abilene_nodelay_network.client[1] 	hdistance[1].real 	1.0012552301255
scalar abilene_nodelay_network.client[1] 	downloads[1].real 	179250
scalar abilene_nodelay_network.client[1] 	avg_time[1].real 	0
scalar abilene_nodelay_network.client[2] 	hdistance[2].real 	0.89576006089599
scalar abilene_nodelay_network.client[2] 	downloads[2].real 	179979
scalar abilene_nodelay_network.client[2] 	avg_time[2].real 	0
scalar abilene_nodelay_network.client[3] 	hdistance[3].real 	0.90397988689152
scalar abilene_nodelay_network.client[3] 	downloads[3].real 	180181
scalar abilene_nodelay_network.client[3] 	avg_time[3].real 	0
scalar abilene_nodelay_network.client[4] 	hdistance[4].real 	1.0064162337374
scalar abilene_nodelay_network.client[4] 	downloads[4].real 	180168
scalar abilene_nodelay_network.client[4] 	avg_time[4].real 	0
scalar abilene_nodelay_network.client[5] 	hdistance[5].real 	1.0289852647548
scalar abilene_nodelay_network.client[5] 	downloads[5].real 	179298
scalar abilene_nodelay_network.client[5] 	avg_time[5].real 	0
scalar abilene_nodelay_network.client[6] 	hdistance[6].real 	0.98917968184702
scalar abilene_nodelay_network.client[6] 	downloads[6].real 	179662
scalar abilene_nodelay_network.client[6] 	avg_time[6].real 	0
scalar abilene_nodelay_network.client[7] 	hdistance[7].real 	0.89612397066428
scalar abilene_nodelay_network.client[7] 	downloads[7].real 	179849
scalar abilene_nodelay_network.client[7] 	avg_time[7].real 	0
scalar abilene_nodelay_network.client[8] 	hdistance[8].real 	0.88679087503345
scalar abilene_nodelay_network.client[8] 	downloads[8].real 	179376
scalar abilene_nodelay_network.client[8] 	avg_time[8].real 	0
scalar abilene_nodelay_network.client[9] 	hdistance[9].real 	0.9612804336236
scalar abilene_nodelay_network.client[9] 	downloads[9].real 	180064
scalar abilene_nodelay_network.client[9] 	avg_time[9].real 	0
scalar abilene_nodelay_network.client[10] 	hdistance[10].real 	0.95478936141848
scalar abilene_nodelay_network.client[10] 	downloads[10].real 	180024
scalar abilene_nodelay_network.client[10] 	avg_time[10].real 	0
