version 2
run General-3-20150723-15:18:46-25203
attr C 1e4
attr D lce
attr F spr
attr R partitioneds
attr a 1
attr brates 0.3_0.7_1.5_2.5_3.5
attr configname General
attr ctlg 1e6
attr datetime 20150723-15:18:46
attr experiment General
attr inifile omnetpp.ini
attr iterationvars "$net=abilene_nodelay, $rep=1, $lambda=100, $a=1, $ctlg=1e6, $brates=0.3_0.7_1.5_2.5_3.5, $F=spr, $ttl=1000, $D=lce, $R=partitioneds, $C=1e4, $window=60, $variance=0.05, $mytime=1800"
attr iterationvars2 "$net=abilene_nodelay, $rep=1, $lambda=100, $a=1, $ctlg=1e6, $brates=0.3_0.7_1.5_2.5_3.5, $F=spr, $ttl=1000, $D=lce, $R=partitioneds, $C=1e4, $window=60, $variance=0.05, $mytime=1800, $repetition=0"
attr lambda 100
attr measurement "$net=abilene_nodelay, $rep=1, $lambda=100, $a=1, $ctlg=1e6, $brates=0.3_0.7_1.5_2.5_3.5, $F=spr, $ttl=1000, $D=lce, $R=partitioneds, $C=1e4, $window=60, $variance=0.05, $mytime=1800"
attr mytime 1800
attr net abilene_nodelay
attr network networks.${net=abilene_nodelay}_network
attr processid 25203
attr rep 1
attr repetition 0
attr replication #0
attr resultdir results
attr runnumber 3
attr seedset 1
attr ttl 1000
attr variance 0.05
attr window 60

scalar . 	C 	1e4
scalar . 	a 	1
scalar . 	ctlg 	1e6
scalar . 	lambda 	100
scalar . 	mytime 	1800
scalar . 	rep 	1
scalar . 	ttl 	1000
scalar . 	variance 	0.05
scalar . 	window 	60
scalar abilene_nodelay_network.content_distribution 	repo-0 	10
scalar abilene_nodelay_network.content_distribution 	repo-1 	7
scalar abilene_nodelay_network.content_distribution 	repo-2 	5
scalar abilene_nodelay_network.content_distribution 	repo-3 	1
scalar abilene_nodelay_network.content_distribution 	repo-4 	8
scalar abilene_nodelay_network.content_distribution 	repo-5 	2
scalar abilene_nodelay_network.content_distribution 	repo-6 	9
scalar abilene_nodelay_network.content_distribution 	repo-7 	4
scalar abilene_nodelay_network.content_distribution 	repo-8 	6
scalar abilene_nodelay_network.content_distribution 	repo-9 	3
scalar abilene_nodelay_network.content_distribution 	repo-10 	0
scalar abilene_nodelay_network.content_distribution 	client-0 	7
scalar abilene_nodelay_network.content_distribution 	client-1 	5
scalar abilene_nodelay_network.content_distribution 	client-2 	9
scalar abilene_nodelay_network.content_distribution 	client-3 	6
scalar abilene_nodelay_network.content_distribution 	client-4 	8
scalar abilene_nodelay_network.content_distribution 	client-5 	2
scalar abilene_nodelay_network.content_distribution 	client-6 	1
scalar abilene_nodelay_network.content_distribution 	client-7 	10
scalar abilene_nodelay_network.content_distribution 	client-8 	0
scalar abilene_nodelay_network.content_distribution 	client-9 	3
scalar abilene_nodelay_network.content_distribution 	client-10 	4
scalar abilene_nodelay_network.content_distribution 	repo-0_card 	90939
scalar abilene_nodelay_network.content_distribution 	repo-0_price 	0
scalar abilene_nodelay_network.content_distribution 	repo-1_card 	90490
scalar abilene_nodelay_network.content_distribution 	repo-1_price 	0
scalar abilene_nodelay_network.content_distribution 	repo-2_card 	90363
scalar abilene_nodelay_network.content_distribution 	repo-2_price 	0
scalar abilene_nodelay_network.content_distribution 	repo-3_card 	90686
scalar abilene_nodelay_network.content_distribution 	repo-3_price 	0
scalar abilene_nodelay_network.content_distribution 	repo-4_card 	91009
scalar abilene_nodelay_network.content_distribution 	repo-4_price 	0
scalar abilene_nodelay_network.content_distribution 	repo-5_card 	90927
scalar abilene_nodelay_network.content_distribution 	repo-5_price 	0
scalar abilene_nodelay_network.content_distribution 	repo-6_card 	91541
scalar abilene_nodelay_network.content_distribution 	repo-6_price 	0
scalar abilene_nodelay_network.content_distribution 	repo-7_card 	91332
scalar abilene_nodelay_network.content_distribution 	repo-7_price 	0
scalar abilene_nodelay_network.content_distribution 	repo-8_card 	90743
scalar abilene_nodelay_network.content_distribution 	repo-8_price 	0
scalar abilene_nodelay_network.content_distribution 	repo-9_card 	91264
scalar abilene_nodelay_network.content_distribution 	repo-9_price 	0
scalar abilene_nodelay_network.content_distribution 	repo-10_card 	90706
scalar abilene_nodelay_network.content_distribution 	repo-10_price 	0
scalar abilene_nodelay_network.statistics 	stabilization_time 	36060
scalar abilene_nodelay_network.statistics 	p_hit 	0.32712176927419
scalar abilene_nodelay_network.statistics 	interests 	414246.90909091
scalar abilene_nodelay_network.statistics 	data 	186476.90909091
scalar abilene_nodelay_network.statistics 	hdistance 	0.96846663981862
scalar abilene_nodelay_network.statistics 	avg_time 	0
scalar abilene_nodelay_network.statistics 	downloads 	1979762
scalar abilene_nodelay_network.statistics 	total_cost 	0
scalar abilene_nodelay_network.statistics 	total_replicas 	1000000
scalar abilene_nodelay_network.statistics 	"representations_downloaded 0.396472:0.059686:0.0449185:0.0400553:0.458868:" 	0
scalar abilene_nodelay_network.statistics 	"slots_per_representation 100:233:500:833:1167:" 	0
scalar abilene_nodelay_network.statistics 	inner_hit 	0.48737828082365
scalar abilene_nodelay_network.statistics 	execution_time 	2125
scalar abilene_nodelay_network.node[0].core_layer 	interests[0] 	278904
scalar abilene_nodelay_network.node[0].core_layer 	repo_load[0] 	86294
scalar abilene_nodelay_network.node[0].core_layer 	data[0] 	80009
scalar abilene_nodelay_network.node[0].core_layer 	slots_sent[face$o[1]->client[0]] 	122911443
scalar abilene_nodelay_network.node[0].core_layer 	slots_sent[face$o[2]->node[1]] 	20382465
scalar abilene_nodelay_network.node[0].core_layer 	slots_sent[face$o[3]->node[10]] 	5341411
scalar abilene_nodelay_network.node[0].content_store 	p_hit[0] 	0.40372673034449
scalar abilene_nodelay_network.node[0].content_store 	hits[0] 	112601
scalar abilene_nodelay_network.node[0].content_store 	misses[0] 	166303
scalar abilene_nodelay_network.node[0].content_store 	decision_yes[0] 	80009
scalar abilene_nodelay_network.node[0].content_store 	decision_no[0] 	86294
scalar abilene_nodelay_network.node[0].content_store 	decision_ratio[0] 	0.4811037684227
scalar abilene_nodelay_network.node[0].content_store 	"representation_breakdown[0] 0x7ffc47f3b388:0x7ffc47f3b388:0x7ffc47f3b388:0x7ffc47f3b388:0x7ffc47f3b388:" 	0
scalar abilene_nodelay_network.node[0].proactive_component 	hdistance[0].proactive_component 	2.6399671675717
scalar abilene_nodelay_network.node[0].proactive_component 	downloads[0].proactive_component 	554330
scalar abilene_nodelay_network.node[0].proactive_component 	avg_time[0].proactive_component 	0
scalar abilene_nodelay_network.node[1].core_layer 	interests[1] 	482869
scalar abilene_nodelay_network.node[1].core_layer 	repo_load[1] 	102725
scalar abilene_nodelay_network.node[1].core_layer 	data[1] 	243486
scalar abilene_nodelay_network.node[1].core_layer 	slots_sent[face$o[1]->client[1]] 	103725431
scalar abilene_nodelay_network.node[1].core_layer 	slots_sent[face$o[2]->node[0]] 	23568849
scalar abilene_nodelay_network.node[1].core_layer 	slots_sent[face$o[3]->node[10]] 	17882305
scalar abilene_nodelay_network.node[1].core_layer 	slots_sent[face$o[4]->node[2]] 	48507541
scalar abilene_nodelay_network.node[1].content_store 	p_hit[1] 	0.28301257691009
scalar abilene_nodelay_network.node[1].content_store 	hits[1] 	136658
scalar abilene_nodelay_network.node[1].content_store 	misses[1] 	346211
scalar abilene_nodelay_network.node[1].content_store 	decision_yes[1] 	243486
scalar abilene_nodelay_network.node[1].content_store 	decision_no[1] 	102725
scalar abilene_nodelay_network.node[1].content_store 	decision_ratio[1] 	0.70328787935681
scalar abilene_nodelay_network.node[1].content_store 	"representation_breakdown[1] 0x7ffc47f3b388:0x7ffc47f3b388:0x7ffc47f3b388:0x7ffc47f3b388:0x7ffc47f3b388:" 	0
scalar abilene_nodelay_network.node[1].proactive_component 	hdistance[1].proactive_component 	2.2166723671372
scalar abilene_nodelay_network.node[1].proactive_component 	downloads[1].proactive_component 	1192884
scalar abilene_nodelay_network.node[1].proactive_component 	avg_time[1].proactive_component 	0
scalar abilene_nodelay_network.node[2].core_layer 	interests[2] 	633517
scalar abilene_nodelay_network.node[2].core_layer 	repo_load[2] 	95976
scalar abilene_nodelay_network.node[2].core_layer 	data[2] 	366398
scalar abilene_nodelay_network.node[2].core_layer 	slots_sent[face$o[1]->client[2]] 	111330026
scalar abilene_nodelay_network.node[2].core_layer 	slots_sent[face$o[2]->node[1]] 	51874927
scalar abilene_nodelay_network.node[2].core_layer 	slots_sent[face$o[3]->node[3]] 	61820050
scalar abilene_nodelay_network.node[2].core_layer 	slots_sent[face$o[4]->node[8]] 	24901107
scalar abilene_nodelay_network.node[2].content_store 	p_hit[2] 	0.27014744671414
scalar abilene_nodelay_network.node[2].content_store 	hits[2] 	171143
scalar abilene_nodelay_network.node[2].content_store 	misses[2] 	462374
scalar abilene_nodelay_network.node[2].content_store 	decision_yes[2] 	366398
scalar abilene_nodelay_network.node[2].content_store 	decision_no[2] 	95976
scalar abilene_nodelay_network.node[2].content_store 	decision_ratio[2] 	0.79242777491814
scalar abilene_nodelay_network.node[2].content_store 	"representation_breakdown[2] 0x7ffc47f3b388:0x7ffc47f3b388:0x7ffc47f3b388:0x7ffc47f3b388:0x7ffc47f3b388:" 	0
scalar abilene_nodelay_network.node[2].proactive_component 	hdistance[2].proactive_component 	2.062237880068
scalar abilene_nodelay_network.node[2].proactive_component 	downloads[2].proactive_component 	1620203
scalar abilene_nodelay_network.node[2].proactive_component 	avg_time[2].proactive_component 	0
scalar abilene_nodelay_network.node[3].core_layer 	interests[3] 	598620
scalar abilene_nodelay_network.node[3].core_layer 	repo_load[3] 	97174
scalar abilene_nodelay_network.node[3].core_layer 	data[3] 	336421
scalar abilene_nodelay_network.node[3].core_layer 	slots_sent[face$o[1]->client[3]] 	110743442
scalar abilene_nodelay_network.node[3].core_layer 	slots_sent[face$o[2]->node[2]] 	61982243
scalar abilene_nodelay_network.node[3].core_layer 	slots_sent[face$o[3]->node[4]] 	37863211
scalar abilene_nodelay_network.node[3].core_layer 	slots_sent[face$o[4]->node[7]] 	27436482
scalar abilene_nodelay_network.node[3].content_store 	p_hit[3] 	0.27567572082456
scalar abilene_nodelay_network.node[3].content_store 	hits[3] 	165025
scalar abilene_nodelay_network.node[3].content_store 	misses[3] 	433595
scalar abilene_nodelay_network.node[3].content_store 	decision_yes[3] 	336421
scalar abilene_nodelay_network.node[3].content_store 	decision_no[3] 	97174
scalar abilene_nodelay_network.node[3].content_store 	decision_ratio[3] 	0.77588763708069
scalar abilene_nodelay_network.node[3].content_store 	"representation_breakdown[3] 0x7ffc47f3b388:0x7ffc47f3b388:0x7ffc47f3b388:0x7ffc47f3b388:0x7ffc47f3b388:" 	0
scalar abilene_nodelay_network.node[3].proactive_component 	hdistance[3].proactive_component 	2.0825088016589
scalar abilene_nodelay_network.node[3].proactive_component 	downloads[3].proactive_component 	1527837
scalar abilene_nodelay_network.node[3].proactive_component 	avg_time[3].proactive_component 	0
scalar abilene_nodelay_network.node[4].core_layer 	interests[4] 	375117
scalar abilene_nodelay_network.node[4].core_layer 	repo_load[4] 	92279
scalar abilene_nodelay_network.node[4].core_layer 	data[4] 	152695
scalar abilene_nodelay_network.node[4].core_layer 	slots_sent[face$o[1]->client[4]] 	118831829
scalar abilene_nodelay_network.node[4].core_layer 	slots_sent[face$o[2]->node[3]] 	35932471
scalar abilene_nodelay_network.node[4].core_layer 	slots_sent[face$o[3]->node[5]] 	20602329
scalar abilene_nodelay_network.node[4].content_store 	p_hit[4] 	0.3469397547965
scalar abilene_nodelay_network.node[4].content_store 	hits[4] 	130143
scalar abilene_nodelay_network.node[4].content_store 	misses[4] 	244974
scalar abilene_nodelay_network.node[4].content_store 	decision_yes[4] 	152695
scalar abilene_nodelay_network.node[4].content_store 	decision_no[4] 	92279
scalar abilene_nodelay_network.node[4].content_store 	decision_ratio[4] 	0.62331104525378
scalar abilene_nodelay_network.node[4].content_store 	"representation_breakdown[4] 0x7ffc47f3b388:0x7ffc47f3b388:0x7ffc47f3b388:0x7ffc47f3b388:0x7ffc47f3b388:" 	0
scalar abilene_nodelay_network.node[4].proactive_component 	hdistance[4].proactive_component 	2.3341735377819
scalar abilene_nodelay_network.node[4].proactive_component 	downloads[4].proactive_component 	876374
scalar abilene_nodelay_network.node[4].proactive_component 	avg_time[4].proactive_component 	0
scalar abilene_nodelay_network.node[5].core_layer 	interests[5] 	298483
scalar abilene_nodelay_network.node[5].core_layer 	repo_load[5] 	82224
scalar abilene_nodelay_network.node[5].core_layer 	data[5] 	95543
scalar abilene_nodelay_network.node[5].core_layer 	slots_sent[face$o[1]->client[5]] 	124689313
scalar abilene_nodelay_network.node[5].core_layer 	slots_sent[face$o[2]->node[4]] 	18154516
scalar abilene_nodelay_network.node[5].core_layer 	slots_sent[face$o[3]->node[6]] 	13249220
scalar abilene_nodelay_network.node[5].content_store 	p_hit[5] 	0.40443174318135
scalar abilene_nodelay_network.node[5].content_store 	hits[5] 	120716
scalar abilene_nodelay_network.node[5].content_store 	misses[5] 	177767
scalar abilene_nodelay_network.node[5].content_store 	decision_yes[5] 	95543
scalar abilene_nodelay_network.node[5].content_store 	decision_no[5] 	82224
scalar abilene_nodelay_network.node[5].content_store 	decision_ratio[5] 	0.53746195863124
scalar abilene_nodelay_network.node[5].content_store 	"representation_breakdown[5] 0x7ffc47f3b388:0x7ffc47f3b388:0x7ffc47f3b388:0x7ffc47f3b388:0x7ffc47f3b388:" 	0
scalar abilene_nodelay_network.node[5].proactive_component 	hdistance[5].proactive_component 	2.3511604967104
scalar abilene_nodelay_network.node[5].proactive_component 	downloads[5].proactive_component 	650842
scalar abilene_nodelay_network.node[5].proactive_component 	avg_time[5].proactive_component 	0
scalar abilene_nodelay_network.node[6].core_layer 	interests[6] 	335260
scalar abilene_nodelay_network.node[6].core_layer 	repo_load[6] 	94004
scalar abilene_nodelay_network.node[6].core_layer 	data[6] 	124882
scalar abilene_nodelay_network.node[6].core_layer 	slots_sent[face$o[1]->client[6]] 	111637337
scalar abilene_nodelay_network.node[6].core_layer 	slots_sent[face$o[2]->node[5]] 	14156517
scalar abilene_nodelay_network.node[6].core_layer 	slots_sent[face$o[3]->node[7]] 	28996895
scalar abilene_nodelay_network.node[6].content_store 	p_hit[6] 	0.3471156714192
scalar abilene_nodelay_network.node[6].content_store 	hits[6] 	116374
scalar abilene_nodelay_network.node[6].content_store 	misses[6] 	218886
scalar abilene_nodelay_network.node[6].content_store 	decision_yes[6] 	124882
scalar abilene_nodelay_network.node[6].content_store 	decision_no[6] 	94004
scalar abilene_nodelay_network.node[6].content_store 	decision_ratio[6] 	0.57053443344938
scalar abilene_nodelay_network.node[6].content_store 	"representation_breakdown[6] 0x7ffc47f3b388:0x7ffc47f3b388:0x7ffc47f3b388:0x7ffc47f3b388:0x7ffc47f3b388:" 	0
scalar abilene_nodelay_network.node[6].proactive_component 	hdistance[6].proactive_component 	2.2616378999804
scalar abilene_nodelay_network.node[6].proactive_component 	downloads[6].proactive_component 	777288
scalar abilene_nodelay_network.node[6].proactive_component 	avg_time[6].proactive_component 	0
scalar abilene_nodelay_network.node[7].core_layer 	interests[7] 	453971
scalar abilene_nodelay_network.node[7].core_layer 	repo_load[7] 	91737
scalar abilene_nodelay_network.node[7].core_layer 	data[7] 	214782
scalar abilene_nodelay_network.node[7].core_layer 	slots_sent[face$o[1]->client[7]] 	117981933
scalar abilene_nodelay_network.node[7].core_layer 	slots_sent[face$o[2]->node[3]] 	24972001
scalar abilene_nodelay_network.node[7].core_layer 	slots_sent[face$o[3]->node[6]] 	31978231
scalar abilene_nodelay_network.node[7].core_layer 	slots_sent[face$o[4]->node[8]] 	22554974
scalar abilene_nodelay_network.node[7].content_store 	p_hit[7] 	0.32480488841798
scalar abilene_nodelay_network.node[7].content_store 	hits[7] 	147452
scalar abilene_nodelay_network.node[7].content_store 	misses[7] 	306519
scalar abilene_nodelay_network.node[7].content_store 	decision_yes[7] 	214782
scalar abilene_nodelay_network.node[7].content_store 	decision_no[7] 	91737
scalar abilene_nodelay_network.node[7].content_store 	decision_ratio[7] 	0.70071349573762
scalar abilene_nodelay_network.node[7].content_store 	"representation_breakdown[7] 0x7ffc47f3b388:0x7ffc47f3b388:0x7ffc47f3b388:0x7ffc47f3b388:0x7ffc47f3b388:" 	0
scalar abilene_nodelay_network.node[7].proactive_component 	hdistance[7].proactive_component 	2.0606393506078
scalar abilene_nodelay_network.node[7].proactive_component 	downloads[7].proactive_component 	1165151
scalar abilene_nodelay_network.node[7].proactive_component 	avg_time[7].proactive_component 	0
scalar abilene_nodelay_network.node[8].core_layer 	interests[8] 	437838
scalar abilene_nodelay_network.node[8].core_layer 	repo_load[8] 	95260
scalar abilene_nodelay_network.node[8].core_layer 	data[8] 	200302
scalar abilene_nodelay_network.node[8].core_layer 	slots_sent[face$o[1]->client[8]] 	116271179
scalar abilene_nodelay_network.node[8].core_layer 	slots_sent[face$o[2]->node[2]] 	22713974
scalar abilene_nodelay_network.node[8].core_layer 	slots_sent[face$o[3]->node[7]] 	22760093
scalar abilene_nodelay_network.node[8].core_layer 	slots_sent[face$o[4]->node[9]] 	29108182
scalar abilene_nodelay_network.node[8].content_store 	p_hit[8] 	0.32495123767238
scalar abilene_nodelay_network.node[8].content_store 	hits[8] 	142276
scalar abilene_nodelay_network.node[8].content_store 	misses[8] 	295562
scalar abilene_nodelay_network.node[8].content_store 	decision_yes[8] 	200302
scalar abilene_nodelay_network.node[8].content_store 	decision_no[8] 	95260
scalar abilene_nodelay_network.node[8].content_store 	decision_ratio[8] 	0.6776987569444
scalar abilene_nodelay_network.node[8].content_store 	"representation_breakdown[8] 0x7ffc47f3b388:0x7ffc47f3b388:0x7ffc47f3b388:0x7ffc47f3b388:0x7ffc47f3b388:" 	0
scalar abilene_nodelay_network.node[8].proactive_component 	hdistance[8].proactive_component 	2.0369146421342
scalar abilene_nodelay_network.node[8].proactive_component 	downloads[8].proactive_component 	1112973
scalar abilene_nodelay_network.node[8].proactive_component 	avg_time[8].proactive_component 	0
scalar abilene_nodelay_network.node[9].core_layer 	interests[9] 	335949
scalar abilene_nodelay_network.node[9].core_layer 	repo_load[9] 	87751
scalar abilene_nodelay_network.node[9].core_layer 	data[9] 	124949
scalar abilene_nodelay_network.node[9].core_layer 	slots_sent[face$o[1]->client[9]] 	117505820
scalar abilene_nodelay_network.node[9].core_layer 	slots_sent[face$o[2]->node[10]] 	16929079
scalar abilene_nodelay_network.node[9].core_layer 	slots_sent[face$o[3]->node[8]] 	26553536
scalar abilene_nodelay_network.node[9].content_store 	p_hit[9] 	0.36686818534956
scalar abilene_nodelay_network.node[9].content_store 	hits[9] 	123249
scalar abilene_nodelay_network.node[9].content_store 	misses[9] 	212700
scalar abilene_nodelay_network.node[9].content_store 	decision_yes[9] 	124949
scalar abilene_nodelay_network.node[9].content_store 	decision_no[9] 	87751
scalar abilene_nodelay_network.node[9].content_store 	decision_ratio[9] 	0.58744240714622
scalar abilene_nodelay_network.node[9].content_store 	"representation_breakdown[9] 0x7ffc47f3b388:0x7ffc47f3b388:0x7ffc47f3b388:0x7ffc47f3b388:0x7ffc47f3b388:" 	0
scalar abilene_nodelay_network.node[9].proactive_component 	hdistance[9].proactive_component 	2.1695632079998
scalar abilene_nodelay_network.node[9].proactive_component 	downloads[9].proactive_component 	787606
scalar abilene_nodelay_network.node[9].proactive_component 	avg_time[9].proactive_component 	0
scalar abilene_nodelay_network.node[10].core_layer 	interests[10] 	326188
scalar abilene_nodelay_network.node[10].core_layer 	repo_load[10] 	89445
scalar abilene_nodelay_network.node[10].core_layer 	data[10] 	111779
scalar abilene_nodelay_network.node[10].core_layer 	slots_sent[face$o[1]->client[10]] 	121078509
scalar abilene_nodelay_network.node[10].core_layer 	slots_sent[face$o[2]->node[0]] 	5748188
scalar abilene_nodelay_network.node[10].core_layer 	slots_sent[face$o[3]->node[1]] 	16194158
scalar abilene_nodelay_network.node[10].core_layer 	slots_sent[face$o[4]->node[9]] 	15824028
scalar abilene_nodelay_network.node[10].content_store 	p_hit[10] 	0.38310422210504
scalar abilene_nodelay_network.node[10].content_store 	hits[10] 	124964
scalar abilene_nodelay_network.node[10].content_store 	misses[10] 	201224
scalar abilene_nodelay_network.node[10].content_store 	decision_yes[10] 	111779
scalar abilene_nodelay_network.node[10].content_store 	decision_no[10] 	89445
scalar abilene_nodelay_network.node[10].content_store 	decision_ratio[10] 	0.55549536834572
scalar abilene_nodelay_network.node[10].content_store 	"representation_breakdown[10] 0x7ffc47f3b388:0x7ffc47f3b388:0x7ffc47f3b388:0x7ffc47f3b388:0x7ffc47f3b388:" 	0
scalar abilene_nodelay_network.node[10].proactive_component 	hdistance[10].proactive_component 	2.2208162089997
scalar abilene_nodelay_network.node[10].proactive_component 	downloads[10].proactive_component 	764020
scalar abilene_nodelay_network.node[10].proactive_component 	avg_time[10].proactive_component 	0
scalar abilene_nodelay_network.client[0] 	hdistance[0].real 	1.0299092466418
scalar abilene_nodelay_network.client[0] 	downloads[0].real 	180379
scalar abilene_nodelay_network.client[0] 	avg_time[0].real 	0
scalar abilene_nodelay_network.client[1] 	hdistance[1].real 	1.0330925593059
scalar abilene_nodelay_network.client[1] 	downloads[1].real 	180252
scalar abilene_nodelay_network.client[1] 	avg_time[1].real 	0
scalar abilene_nodelay_network.client[2] 	hdistance[2].real 	0.90630238295455
scalar abilene_nodelay_network.client[2] 	downloads[2].real 	179567
scalar abilene_nodelay_network.client[2] 	avg_time[2].real 	0
scalar abilene_nodelay_network.client[3] 	hdistance[3].real 	0.92873141812833
scalar abilene_nodelay_network.client[3] 	downloads[3].real 	179476
scalar abilene_nodelay_network.client[3] 	avg_time[3].real 	0
scalar abilene_nodelay_network.client[4] 	hdistance[4].real 	1.0005550529243
scalar abilene_nodelay_network.client[4] 	downloads[4].real 	180163
scalar abilene_nodelay_network.client[4] 	avg_time[4].real 	0
scalar abilene_nodelay_network.client[5] 	hdistance[5].real 	1.0201501800714
scalar abilene_nodelay_network.client[5] 	downloads[5].real 	179651
scalar abilene_nodelay_network.client[5] 	avg_time[5].real 	0
scalar abilene_nodelay_network.client[6] 	hdistance[6].real 	1.0456663301643
scalar abilene_nodelay_network.client[6] 	downloads[6].real 	180286
scalar abilene_nodelay_network.client[6] 	avg_time[6].real 	0
scalar abilene_nodelay_network.client[7] 	hdistance[7].real 	0.89426735318459
scalar abilene_nodelay_network.client[7] 	downloads[7].real 	180039
scalar abilene_nodelay_network.client[7] 	avg_time[7].real 	0
scalar abilene_nodelay_network.client[8] 	hdistance[8].real 	0.87907317967842
scalar abilene_nodelay_network.client[8] 	downloads[8].real 	179927
scalar abilene_nodelay_network.client[8] 	avg_time[8].real 	0
scalar abilene_nodelay_network.client[9] 	hdistance[9].real 	0.95136273482941
scalar abilene_nodelay_network.client[9] 	downloads[9].real 	179492
scalar abilene_nodelay_network.client[9] 	avg_time[9].real 	0
scalar abilene_nodelay_network.client[10] 	hdistance[10].real 	0.96402260012186
scalar abilene_nodelay_network.client[10] 	downloads[10].real 	180530
scalar abilene_nodelay_network.client[10] 	avg_time[10].real 	0
