version 2
run General-2-20150902-20:49:48-2315
attr C 1e3
attr D fix0.1
attr F spr
attr R partitionedn
attr a 1
attr brates 0.3_0.7_1.5_2.5_3.5
attr configname General
attr ctlg 1e5
attr datetime 20150902-20:49:48
attr experiment General
attr inifile omnetpp.ini
attr iterationvars "$net=abilene_nodelay, $rep=0, $lambda=100, $a=1, $ctlg=1e5, $brates=0.3_0.7_1.5_2.5_3.5, $F=spr, $ttl=1000, $D=fix0.1, $R=partitionedn, $proactiveprob=0.1, $C=1e3, $window=60, $variance=0.05, $mytime=180000"
attr iterationvars2 "$net=abilene_nodelay, $rep=0, $lambda=100, $a=1, $ctlg=1e5, $brates=0.3_0.7_1.5_2.5_3.5, $F=spr, $ttl=1000, $D=fix0.1, $R=partitionedn, $proactiveprob=0.1, $C=1e3, $window=60, $variance=0.05, $mytime=180000, $repetition=0"
attr lambda 100
attr measurement "$net=abilene_nodelay, $rep=0, $lambda=100, $a=1, $ctlg=1e5, $brates=0.3_0.7_1.5_2.5_3.5, $F=spr, $ttl=1000, $D=fix0.1, $R=partitionedn, $proactiveprob=0.1, $C=1e3, $window=60, $variance=0.05, $mytime=180000"
attr mytime 180000
attr net abilene_nodelay
attr network networks.${net=abilene_nodelay}_network
attr proactiveprob 0.1
attr processid 2315
attr rep 0
attr repetition 0
attr replication #0
attr resultdir results
attr runnumber 2
attr seedset 0
attr ttl 1000
attr variance 0.05
attr window 60

scalar . 	C 	1e3
scalar . 	a 	1
scalar . 	ctlg 	1e5
scalar . 	lambda 	100
scalar . 	mytime 	180000
scalar . 	proactiveprob 	0.1
scalar . 	rep 	0
scalar . 	ttl 	1000
scalar . 	variance 	0.05
scalar . 	window 	60
scalar abilene_nodelay_network.content_distribution 	repo-0 	5
scalar abilene_nodelay_network.content_distribution 	repo-1 	8
scalar abilene_nodelay_network.content_distribution 	repo-2 	9
scalar abilene_nodelay_network.content_distribution 	repo-3 	0
scalar abilene_nodelay_network.content_distribution 	repo-4 	1
scalar abilene_nodelay_network.content_distribution 	repo-5 	7
scalar abilene_nodelay_network.content_distribution 	repo-6 	6
scalar abilene_nodelay_network.content_distribution 	repo-7 	2
scalar abilene_nodelay_network.content_distribution 	repo-8 	4
scalar abilene_nodelay_network.content_distribution 	repo-9 	10
scalar abilene_nodelay_network.content_distribution 	repo-10 	3
scalar abilene_nodelay_network.content_distribution 	client-0 	10
scalar abilene_nodelay_network.content_distribution 	client-1 	9
scalar abilene_nodelay_network.content_distribution 	client-2 	8
scalar abilene_nodelay_network.content_distribution 	client-3 	7
scalar abilene_nodelay_network.content_distribution 	client-4 	3
scalar abilene_nodelay_network.content_distribution 	client-5 	6
scalar abilene_nodelay_network.content_distribution 	client-6 	5
scalar abilene_nodelay_network.content_distribution 	client-7 	1
scalar abilene_nodelay_network.content_distribution 	client-8 	4
scalar abilene_nodelay_network.content_distribution 	client-9 	0
scalar abilene_nodelay_network.content_distribution 	client-10 	2
scalar abilene_nodelay_network.content_distribution 	repo-0_card 	9071
scalar abilene_nodelay_network.content_distribution 	repo-0_price 	0
scalar abilene_nodelay_network.content_distribution 	repo-1_card 	8986
scalar abilene_nodelay_network.content_distribution 	repo-1_price 	0
scalar abilene_nodelay_network.content_distribution 	repo-2_card 	9050
scalar abilene_nodelay_network.content_distribution 	repo-2_price 	0
scalar abilene_nodelay_network.content_distribution 	repo-3_card 	8986
scalar abilene_nodelay_network.content_distribution 	repo-3_price 	0
scalar abilene_nodelay_network.content_distribution 	repo-4_card 	9064
scalar abilene_nodelay_network.content_distribution 	repo-4_price 	0
scalar abilene_nodelay_network.content_distribution 	repo-5_card 	9170
scalar abilene_nodelay_network.content_distribution 	repo-5_price 	0
scalar abilene_nodelay_network.content_distribution 	repo-6_card 	9151
scalar abilene_nodelay_network.content_distribution 	repo-6_price 	0
scalar abilene_nodelay_network.content_distribution 	repo-7_card 	9112
scalar abilene_nodelay_network.content_distribution 	repo-7_price 	0
scalar abilene_nodelay_network.content_distribution 	repo-8_card 	9132
scalar abilene_nodelay_network.content_distribution 	repo-8_price 	0
scalar abilene_nodelay_network.content_distribution 	repo-9_card 	9101
scalar abilene_nodelay_network.content_distribution 	repo-9_price 	0
scalar abilene_nodelay_network.content_distribution 	repo-10_card 	9177
scalar abilene_nodelay_network.content_distribution 	repo-10_price 	0
scalar abilene_nodelay_network.statistics 	stabilization_time 	36060
scalar abilene_nodelay_network.statistics 	p_hit 	0.32760727836064
scalar abilene_nodelay_network.statistics 	interests 	32481790
scalar abilene_nodelay_network.statistics 	data 	14198575.181818
scalar abilene_nodelay_network.statistics 	hdistance 	1.1775445671652
scalar abilene_nodelay_network.statistics 	avg_time 	0
scalar abilene_nodelay_network.statistics 	downloads 	197980075
scalar abilene_nodelay_network.statistics 	total_cost 	0
scalar abilene_nodelay_network.statistics 	total_replicas 	100000
scalar abilene_nodelay_network.statistics 	"representations_downloaded 0.441394:0.0401368:0.0407582:0.047634:0.430077:" 	0
scalar abilene_nodelay_network.statistics 	"slots_per_representation 100:233:500:833:1167:" 	0
scalar abilene_nodelay_network.statistics 	inner_hit 	0.57540482798585
scalar abilene_nodelay_network.statistics 	execution_time 	7563
scalar abilene_nodelay_network.node[0].core_layer 	interests[0] 	23630276
scalar abilene_nodelay_network.node[0].core_layer 	repo_load[0] 	6692309
scalar abilene_nodelay_network.node[0].core_layer 	data[0] 	6326670
scalar abilene_nodelay_network.node[0].core_layer 	slots_sent[face$o[1]->client[0]] 	11746150251
scalar abilene_nodelay_network.node[0].core_layer 	slots_sent[face$o[2]->node[1]] 	486968353
scalar abilene_nodelay_network.node[0].core_layer 	slots_sent[face$o[3]->node[10]] 	158537628
scalar abilene_nodelay_network.node[0].content_store 	p_hit[0] 	0.4490551443411
scalar abilene_nodelay_network.node[0].content_store 	hits[0] 	10611297
scalar abilene_nodelay_network.node[0].content_store 	misses[0] 	13018979
scalar abilene_nodelay_network.node[0].content_store 	decision_yes[0] 	633892
scalar abilene_nodelay_network.node[0].content_store 	decision_no[0] 	12385087
scalar abilene_nodelay_network.node[0].content_store 	decision_ratio[0] 	0.048689839656397
scalar abilene_nodelay_network.node[0].content_store 	"representation_breakdown[0] 0x7fff94f1de68:0x7fff94f1de68:0x7fff94f1de68:0x7fff94f1de68:0x7fff94f1de68:" 	0
scalar abilene_nodelay_network.node[0].proactive_component 	hdistance[0].proactive_component 	2.3813977158325
scalar abilene_nodelay_network.node[0].proactive_component 	downloads[0].proactive_component 	271171
scalar abilene_nodelay_network.node[0].proactive_component 	avg_time[0].proactive_component 	0
scalar abilene_nodelay_network.node[1].core_layer 	interests[1] 	36739744
scalar abilene_nodelay_network.node[1].core_layer 	repo_load[1] 	7958868
scalar abilene_nodelay_network.node[1].core_layer 	data[1] 	18315199
scalar abilene_nodelay_network.node[1].core_layer 	slots_sent[face$o[1]->client[1]] 	10410017929
scalar abilene_nodelay_network.node[1].core_layer 	slots_sent[face$o[2]->node[0]] 	776336999
scalar abilene_nodelay_network.node[1].core_layer 	slots_sent[face$o[3]->node[10]] 	562989997
scalar abilene_nodelay_network.node[1].core_layer 	slots_sent[face$o[4]->node[2]] 	1249070821
scalar abilene_nodelay_network.node[1].content_store 	p_hit[1] 	0.28485982373748
scalar abilene_nodelay_network.node[1].content_store 	hits[1] 	10465677
scalar abilene_nodelay_network.node[1].content_store 	misses[1] 	26274067
scalar abilene_nodelay_network.node[1].content_store 	decision_yes[1] 	1830230
scalar abilene_nodelay_network.node[1].content_store 	decision_no[1] 	24443837
scalar abilene_nodelay_network.node[1].content_store 	decision_ratio[1] 	0.069659181427831
scalar abilene_nodelay_network.node[1].content_store 	"representation_breakdown[1] 0x7fff94f1de68:0x7fff94f1de68:0x7fff94f1de68:0x7fff94f1de68:0x7fff94f1de68:" 	0
scalar abilene_nodelay_network.node[1].proactive_component 	hdistance[1].proactive_component 	2.2698236652795
scalar abilene_nodelay_network.node[1].proactive_component 	downloads[1].proactive_component 	393116
scalar abilene_nodelay_network.node[1].proactive_component 	avg_time[1].proactive_component 	0
scalar abilene_nodelay_network.node[2].core_layer 	interests[2] 	46714812
scalar abilene_nodelay_network.node[2].core_layer 	repo_load[2] 	8980308
scalar abilene_nodelay_network.node[2].core_layer 	data[2] 	27127683
scalar abilene_nodelay_network.node[2].core_layer 	slots_sent[face$o[1]->client[2]] 	10243590531
scalar abilene_nodelay_network.node[2].core_layer 	slots_sent[face$o[2]->node[1]] 	1520128786
scalar abilene_nodelay_network.node[2].core_layer 	slots_sent[face$o[3]->node[3]] 	1733322225
scalar abilene_nodelay_network.node[2].core_layer 	slots_sent[face$o[4]->node[8]] 	771102619
scalar abilene_nodelay_network.node[2].content_store 	p_hit[2] 	0.22705477226367
scalar abilene_nodelay_network.node[2].content_store 	hits[2] 	10606821
scalar abilene_nodelay_network.node[2].content_store 	misses[2] 	36107991
scalar abilene_nodelay_network.node[2].content_store 	decision_yes[2] 	2713955
scalar abilene_nodelay_network.node[2].content_store 	decision_no[2] 	33394036
scalar abilene_nodelay_network.node[2].content_store 	decision_ratio[2] 	0.075162171165934
scalar abilene_nodelay_network.node[2].content_store 	"representation_breakdown[2] 0x7fff94f1de68:0x7fff94f1de68:0x7fff94f1de68:0x7fff94f1de68:0x7fff94f1de68:" 	0
scalar abilene_nodelay_network.node[2].proactive_component 	hdistance[2].proactive_component 	2.2593029404383
scalar abilene_nodelay_network.node[2].proactive_component 	downloads[2].proactive_component 	410381
scalar abilene_nodelay_network.node[2].proactive_component 	avg_time[2].proactive_component 	0
scalar abilene_nodelay_network.node[3].core_layer 	interests[3] 	44364488
scalar abilene_nodelay_network.node[3].core_layer 	repo_load[3] 	7946411
scalar abilene_nodelay_network.node[3].core_layer 	data[3] 	25072629
scalar abilene_nodelay_network.node[3].core_layer 	slots_sent[face$o[1]->client[3]] 	10947664820
scalar abilene_nodelay_network.node[3].core_layer 	slots_sent[face$o[2]->node[2]] 	1684758760
scalar abilene_nodelay_network.node[3].core_layer 	slots_sent[face$o[3]->node[4]] 	1161649438
scalar abilene_nodelay_network.node[3].core_layer 	slots_sent[face$o[4]->node[7]] 	835393034
scalar abilene_nodelay_network.node[3].content_store 	p_hit[3] 	0.25573264814867
scalar abilene_nodelay_network.node[3].content_store 	hits[3] 	11345448
scalar abilene_nodelay_network.node[3].content_store 	misses[3] 	33019040
scalar abilene_nodelay_network.node[3].content_store 	decision_yes[3] 	2508387
scalar abilene_nodelay_network.node[3].content_store 	decision_no[3] 	30510653
scalar abilene_nodelay_network.node[3].content_store 	decision_ratio[3] 	0.075967896098736
scalar abilene_nodelay_network.node[3].content_store 	"representation_breakdown[3] 0x7fff94f1de68:0x7fff94f1de68:0x7fff94f1de68:0x7fff94f1de68:0x7fff94f1de68:" 	0
scalar abilene_nodelay_network.node[3].proactive_component 	hdistance[3].proactive_component 	2.2466451245896
scalar abilene_nodelay_network.node[3].proactive_component 	downloads[3].proactive_component 	428928
scalar abilene_nodelay_network.node[3].proactive_component 	avg_time[3].proactive_component 	0
scalar abilene_nodelay_network.node[4].core_layer 	interests[4] 	29603314
scalar abilene_nodelay_network.node[4].core_layer 	repo_load[4] 	7002703
scalar abilene_nodelay_network.node[4].core_layer 	data[4] 	11722351
scalar abilene_nodelay_network.node[4].core_layer 	slots_sent[face$o[1]->client[4]] 	11499784236
scalar abilene_nodelay_network.node[4].core_layer 	slots_sent[face$o[2]->node[3]] 	887043855
scalar abilene_nodelay_network.node[4].core_layer 	slots_sent[face$o[3]->node[5]] 	655013734
scalar abilene_nodelay_network.node[4].content_store 	p_hit[4] 	0.36746764230518
scalar abilene_nodelay_network.node[4].content_store 	hits[4] 	10878260
scalar abilene_nodelay_network.node[4].content_store 	misses[4] 	18725054
scalar abilene_nodelay_network.node[4].content_store 	decision_yes[4] 	1173421
scalar abilene_nodelay_network.node[4].content_store 	decision_no[4] 	17551633
scalar abilene_nodelay_network.node[4].content_store 	decision_ratio[4] 	0.06266582729214
scalar abilene_nodelay_network.node[4].content_store 	"representation_breakdown[4] 0x7fff94f1de68:0x7fff94f1de68:0x7fff94f1de68:0x7fff94f1de68:0x7fff94f1de68:" 	0
scalar abilene_nodelay_network.node[4].proactive_component 	hdistance[4].proactive_component 	2.3069979728561
scalar abilene_nodelay_network.node[4].proactive_component 	downloads[4].proactive_component 	323608
scalar abilene_nodelay_network.node[4].proactive_component 	avg_time[4].proactive_component 	0
scalar abilene_nodelay_network.node[5].core_layer 	interests[5] 	25104261
scalar abilene_nodelay_network.node[5].core_layer 	repo_load[5] 	8246123
scalar abilene_nodelay_network.node[5].core_layer 	data[5] 	7582618
scalar abilene_nodelay_network.node[5].core_layer 	slots_sent[face$o[1]->client[5]] 	10252322670
scalar abilene_nodelay_network.node[5].core_layer 	slots_sent[face$o[2]->node[4]] 	483810772
scalar abilene_nodelay_network.node[5].core_layer 	slots_sent[face$o[3]->node[6]] 	367721875
scalar abilene_nodelay_network.node[5].content_store 	p_hit[5] 	0.3694799062199
scalar abilene_nodelay_network.node[5].content_store 	hits[5] 	9275520
scalar abilene_nodelay_network.node[5].content_store 	misses[5] 	15828741
scalar abilene_nodelay_network.node[5].content_store 	decision_yes[5] 	757683
scalar abilene_nodelay_network.node[5].content_store 	decision_no[5] 	15071058
scalar abilene_nodelay_network.node[5].content_store 	decision_ratio[5] 	0.047867546761931
scalar abilene_nodelay_network.node[5].content_store 	"representation_breakdown[5] 0x7fff94f1de68:0x7fff94f1de68:0x7fff94f1de68:0x7fff94f1de68:0x7fff94f1de68:" 	0
scalar abilene_nodelay_network.node[5].proactive_component 	hdistance[5].proactive_component 	2.3625313687795
scalar abilene_nodelay_network.node[5].proactive_component 	downloads[5].proactive_component 	272564
scalar abilene_nodelay_network.node[5].proactive_component 	avg_time[5].proactive_component 	0
scalar abilene_nodelay_network.node[6].core_layer 	interests[6] 	27476083
scalar abilene_nodelay_network.node[6].core_layer 	repo_load[6] 	6954637
scalar abilene_nodelay_network.node[6].core_layer 	data[6] 	9731723
scalar abilene_nodelay_network.node[6].core_layer 	slots_sent[face$o[1]->client[6]] 	11649411334
scalar abilene_nodelay_network.node[6].core_layer 	slots_sent[face$o[2]->node[5]] 	446418528
scalar abilene_nodelay_network.node[6].core_layer 	slots_sent[face$o[3]->node[7]] 	753940205
scalar abilene_nodelay_network.node[6].content_store 	p_hit[6] 	0.39269509412968
scalar abilene_nodelay_network.node[6].content_store 	hits[6] 	10789723
scalar abilene_nodelay_network.node[6].content_store 	misses[6] 	16686360
scalar abilene_nodelay_network.node[6].content_store 	decision_yes[6] 	971944
scalar abilene_nodelay_network.node[6].content_store 	decision_no[6] 	15714416
scalar abilene_nodelay_network.node[6].content_store 	decision_ratio[6] 	0.058247814382526
scalar abilene_nodelay_network.node[6].content_store 	"representation_breakdown[6] 0x7fff94f1de68:0x7fff94f1de68:0x7fff94f1de68:0x7fff94f1de68:0x7fff94f1de68:" 	0
scalar abilene_nodelay_network.node[6].proactive_component 	hdistance[6].proactive_component 	2.3228662627577
scalar abilene_nodelay_network.node[6].proactive_component 	downloads[6].proactive_component 	295116
scalar abilene_nodelay_network.node[6].proactive_component 	avg_time[6].proactive_component 	0
scalar abilene_nodelay_network.node[7].core_layer 	interests[7] 	35309010
scalar abilene_nodelay_network.node[7].core_layer 	repo_load[7] 	7836704
scalar abilene_nodelay_network.node[7].core_layer 	data[7] 	16275435
scalar abilene_nodelay_network.node[7].core_layer 	slots_sent[face$o[1]->client[7]] 	11432614671
scalar abilene_nodelay_network.node[7].core_layer 	slots_sent[face$o[2]->node[3]] 	697852585
scalar abilene_nodelay_network.node[7].core_layer 	slots_sent[face$o[3]->node[6]] 	985054153
scalar abilene_nodelay_network.node[7].core_layer 	slots_sent[face$o[4]->node[8]] 	651097926
scalar abilene_nodelay_network.node[7].content_store 	p_hit[7] 	0.3171108734003
scalar abilene_nodelay_network.node[7].content_store 	hits[7] 	11196871
scalar abilene_nodelay_network.node[7].content_store 	misses[7] 	24112139
scalar abilene_nodelay_network.node[7].content_store 	decision_yes[7] 	1626609
scalar abilene_nodelay_network.node[7].content_store 	decision_no[7] 	22485530
scalar abilene_nodelay_network.node[7].content_store 	decision_ratio[7] 	0.067460170165741
scalar abilene_nodelay_network.node[7].content_store 	"representation_breakdown[7] 0x7fff94f1de68:0x7fff94f1de68:0x7fff94f1de68:0x7fff94f1de68:0x7fff94f1de68:" 	0
scalar abilene_nodelay_network.node[7].proactive_component 	hdistance[7].proactive_component 	2.1900329633147
scalar abilene_nodelay_network.node[7].proactive_component 	downloads[7].proactive_component 	366468
scalar abilene_nodelay_network.node[7].proactive_component 	avg_time[7].proactive_component 	0
scalar abilene_nodelay_network.node[8].core_layer 	interests[8] 	33885864
scalar abilene_nodelay_network.node[8].core_layer 	repo_load[8] 	7255753
scalar abilene_nodelay_network.node[8].core_layer 	data[8] 	15464018
scalar abilene_nodelay_network.node[8].core_layer 	slots_sent[face$o[1]->client[8]] 	11386314189
scalar abilene_nodelay_network.node[8].core_layer 	slots_sent[face$o[2]->node[2]] 	615745691
scalar abilene_nodelay_network.node[8].core_layer 	slots_sent[face$o[3]->node[7]] 	628580856
scalar abilene_nodelay_network.node[8].core_layer 	slots_sent[face$o[4]->node[9]] 	865810233
scalar abilene_nodelay_network.node[8].content_store 	p_hit[8] 	0.32952068154437
scalar abilene_nodelay_network.node[8].content_store 	hits[8] 	11166093
scalar abilene_nodelay_network.node[8].content_store 	misses[8] 	22719771
scalar abilene_nodelay_network.node[8].content_store 	decision_yes[8] 	1545697
scalar abilene_nodelay_network.node[8].content_store 	decision_no[8] 	21174074
scalar abilene_nodelay_network.node[8].content_store 	decision_ratio[8] 	0.068033124101471
scalar abilene_nodelay_network.node[8].content_store 	"representation_breakdown[8] 0x7fff94f1de68:0x7fff94f1de68:0x7fff94f1de68:0x7fff94f1de68:0x7fff94f1de68:" 	0
scalar abilene_nodelay_network.node[8].proactive_component 	hdistance[8].proactive_component 	2.1409128772052
scalar abilene_nodelay_network.node[8].proactive_component 	downloads[8].proactive_component 	375757
scalar abilene_nodelay_network.node[8].proactive_component 	avg_time[8].proactive_component 	0
scalar abilene_nodelay_network.node[9].core_layer 	interests[9] 	27552509
scalar abilene_nodelay_network.node[9].core_layer 	repo_load[9] 	7280671
scalar abilene_nodelay_network.node[9].core_layer 	data[9] 	9692696
scalar abilene_nodelay_network.node[9].core_layer 	slots_sent[face$o[1]->client[9]] 	11367877954
scalar abilene_nodelay_network.node[9].core_layer 	slots_sent[face$o[2]->node[10]] 	514830211
scalar abilene_nodelay_network.node[9].core_layer 	slots_sent[face$o[3]->node[8]] 	694559817
scalar abilene_nodelay_network.node[9].content_store 	p_hit[9] 	0.38396292693344
scalar abilene_nodelay_network.node[9].content_store 	hits[9] 	10579142
scalar abilene_nodelay_network.node[9].content_store 	misses[9] 	16973367
scalar abilene_nodelay_network.node[9].content_store 	decision_yes[9] 	969764
scalar abilene_nodelay_network.node[9].content_store 	decision_no[9] 	16003603
scalar abilene_nodelay_network.node[9].content_store 	decision_ratio[9] 	0.05713445069561
scalar abilene_nodelay_network.node[9].content_store 	"representation_breakdown[9] 0x7fff94f1de68:0x7fff94f1de68:0x7fff94f1de68:0x7fff94f1de68:0x7fff94f1de68:" 	0
scalar abilene_nodelay_network.node[9].proactive_component 	hdistance[9].proactive_component 	2.2720056066957
scalar abilene_nodelay_network.node[9].proactive_component 	downloads[9].proactive_component 	296788
scalar abilene_nodelay_network.node[9].proactive_component 	avg_time[9].proactive_component 	0
scalar abilene_nodelay_network.node[10].core_layer 	interests[10] 	26919329
scalar abilene_nodelay_network.node[10].core_layer 	repo_load[10] 	7906897
scalar abilene_nodelay_network.node[10].core_layer 	data[10] 	8873305
scalar abilene_nodelay_network.node[10].core_layer 	slots_sent[face$o[1]->client[10]] 	10911038147
scalar abilene_nodelay_network.node[10].core_layer 	slots_sent[face$o[2]->node[0]] 	184237471
scalar abilene_nodelay_network.node[10].core_layer 	slots_sent[face$o[3]->node[1]] 	455938390
scalar abilene_nodelay_network.node[10].core_layer 	slots_sent[face$o[4]->node[9]] 	447439597
scalar abilene_nodelay_network.node[10].content_store 	p_hit[10] 	0.37664857842482
scalar abilene_nodelay_network.node[10].content_store 	hits[10] 	10139127
scalar abilene_nodelay_network.node[10].content_store 	misses[10] 	16780202
scalar abilene_nodelay_network.node[10].content_store 	decision_yes[10] 	887398
scalar abilene_nodelay_network.node[10].content_store 	decision_no[10] 	15892804
scalar abilene_nodelay_network.node[10].content_store 	decision_ratio[10] 	0.052883630363925
scalar abilene_nodelay_network.node[10].content_store 	"representation_breakdown[10] 0x7fff94f1de68:0x7fff94f1de68:0x7fff94f1de68:0x7fff94f1de68:0x7fff94f1de68:" 	0
scalar abilene_nodelay_network.node[10].proactive_component 	hdistance[10].proactive_component 	2.2368185672247
scalar abilene_nodelay_network.node[10].proactive_component 	downloads[10].proactive_component 	300745
scalar abilene_nodelay_network.node[10].proactive_component 	avg_time[10].proactive_component 	0
scalar abilene_nodelay_network.client[0] 	hdistance[0].real 	1.2812693462498
scalar abilene_nodelay_network.client[0] 	downloads[0].real 	17997674
scalar abilene_nodelay_network.client[0] 	avg_time[0].real 	0
scalar abilene_nodelay_network.client[1] 	hdistance[1].real 	1.1914126225417
scalar abilene_nodelay_network.client[1] 	downloads[1].real 	17997136
scalar abilene_nodelay_network.client[1] 	avg_time[1].real 	0
scalar abilene_nodelay_network.client[2] 	hdistance[2].real 	1.1065112348348
scalar abilene_nodelay_network.client[2] 	downloads[2].real 	17996571
scalar abilene_nodelay_network.client[2] 	avg_time[2].real 	0
scalar abilene_nodelay_network.client[3] 	hdistance[3].real 	1.0868151243154
scalar abilene_nodelay_network.client[3] 	downloads[3].real 	17999836
scalar abilene_nodelay_network.client[3] 	avg_time[3].real 	0
scalar abilene_nodelay_network.client[4] 	hdistance[4].real 	1.2124672362836
scalar abilene_nodelay_network.client[4] 	downloads[4].real 	18003910
scalar abilene_nodelay_network.client[4] 	avg_time[4].real 	0
scalar abilene_nodelay_network.client[5] 	hdistance[5].real 	1.3559985889615
scalar abilene_nodelay_network.client[5] 	downloads[5].real 	17998091
scalar abilene_nodelay_network.client[5] 	avg_time[5].real 	0
scalar abilene_nodelay_network.client[6] 	hdistance[6].real 	1.216180538583
scalar abilene_nodelay_network.client[6] 	downloads[6].real 	18002800
scalar abilene_nodelay_network.client[6] 	avg_time[6].real 	0
scalar abilene_nodelay_network.client[7] 	hdistance[7].real 	1.073206415808
scalar abilene_nodelay_network.client[7] 	downloads[7].real 	17996674
scalar abilene_nodelay_network.client[7] 	avg_time[7].real 	0
scalar abilene_nodelay_network.client[8] 	hdistance[8].real 	1.0497268391193
scalar abilene_nodelay_network.client[8] 	downloads[8].real 	17994890
scalar abilene_nodelay_network.client[8] 	avg_time[8].real 	0
scalar abilene_nodelay_network.client[9] 	hdistance[9].real 	1.1619908767677
scalar abilene_nodelay_network.client[9] 	downloads[9].real 	17998884
scalar abilene_nodelay_network.client[9] 	avg_time[9].real 	0
scalar abilene_nodelay_network.client[10] 	hdistance[10].real 	1.2174114153529
scalar abilene_nodelay_network.client[10] 	downloads[10].real 	17993609
scalar abilene_nodelay_network.client[10] 	avg_time[10].real 	0
