version 2
run General-18-20140908-17:15:19-16893
attr D lce
attr F spr
attr R lru
attr a 1
attr configname General
attr csize 1e3
attr ctlg 1e5
attr datetime 20140908-17:15:19
attr experiment General
attr inifile omnetpp.ini
attr iterationvars "$net=tiger_cost, $rep=19, $priceratiovalue=10, $weights=0.333_0.333_0.334, $lambda=100, $a=1, $ctlg=1e5, $F=spr, $ttl=10, $D=lce, $xi=1, $R=lru, $csize=1e3, $pricebits=0, $window=60, $variance=0.05, $mytime=1800"
attr iterationvars2 "$net=tiger_cost, $rep=19, $priceratiovalue=10, $weights=0.333_0.333_0.334, $lambda=100, $a=1, $ctlg=1e5, $F=spr, $ttl=10, $D=lce, $xi=1, $R=lru, $csize=1e3, $pricebits=0, $window=60, $variance=0.05, $mytime=1800, $repetition=0"
attr lambda 100
attr measurement "$net=tiger_cost, $rep=19, $priceratiovalue=10, $weights=0.333_0.333_0.334, $lambda=100, $a=1, $ctlg=1e5, $F=spr, $ttl=10, $D=lce, $xi=1, $R=lru, $csize=1e3, $pricebits=0, $window=60, $variance=0.05, $mytime=1800"
attr mytime 1800
attr net tiger_cost
attr network networks.${net=level3_cost,tiger_cost,dtelecom_cost}_network
attr pricebits 0
attr priceratiovalue 10
attr processid 16893
attr rep 19
attr repetition 0
attr replication #0
attr resultdir results
attr runnumber 18
attr seedset 19
attr ttl 10
attr variance 0.05
attr weights 0.333_0.333_0.334
attr window 60
attr xi 1

scalar . 	a 	1
scalar . 	csize 	1e3
scalar . 	ctlg 	1e5
scalar . 	lambda 	100
scalar . 	mytime 	1800
scalar . 	pricebits 	0
scalar . 	priceratiovalue 	10
scalar . 	rep 	19
scalar . 	ttl 	10
scalar . 	variance 	0.05
scalar . 	window 	60
scalar . 	xi 	1
scalar tiger_cost_network.content_distribution 	repo-0 	3
scalar tiger_cost_network.content_distribution 	repo-1 	0
scalar tiger_cost_network.content_distribution 	repo-2 	14
scalar tiger_cost_network.content_distribution 	client-0 	3
scalar tiger_cost_network.content_distribution 	client-1 	20
scalar tiger_cost_network.content_distribution 	client-2 	1
scalar tiger_cost_network.content_distribution 	repo-0_card 	33373
scalar tiger_cost_network.content_distribution 	repo-0_price 	10
scalar tiger_cost_network.content_distribution 	repo-1_card 	33385
scalar tiger_cost_network.content_distribution 	repo-1_price 	1
scalar tiger_cost_network.content_distribution 	repo-2_card 	33242
scalar tiger_cost_network.content_distribution 	repo-2_price 	0
scalar tiger_cost_network.statistics 	repo_popularity[0] 	0.41183223595039
scalar tiger_cost_network.statistics 	repo_popularity[1] 	0.29096057586331
scalar tiger_cost_network.statistics 	repo_popularity[2] 	0.29720718818631
scalar tiger_cost_network.statistics 	stabilization_time 	36060
scalar tiger_cost_network.statistics 	p_hit 	0.099997356665169
scalar tiger_cost_network.statistics 	interests 	72222.818181818
scalar tiger_cost_network.statistics 	data 	47652.681818182
scalar tiger_cost_network.statistics 	hdistance 	2.6450870613424
scalar tiger_cost_network.statistics 	avg_time 	0.00078446341
scalar tiger_cost_network.statistics 	downloads 	540472
scalar tiger_cost_network.statistics 	total_cost 	1484371
scalar tiger_cost_network.statistics 	total_replicas 	100000
scalar tiger_cost_network.statistics 	inner_hit 	0.2939948785506
scalar tiger_cost_network.statistics 	interests_sent 	540543
scalar tiger_cost_network.node[0].core_layer 	interests[0] 	129674
scalar tiger_cost_network.node[0].core_layer 	repo_load[0] 	121841
scalar tiger_cost_network.node[0].core_layer 	data[0] 	0
scalar tiger_cost_network.node[0].core_layer 	repo_int[0] 	381576
scalar tiger_cost_network.node[0].content_store 	p_hit[0] 	0.060405324120487
scalar tiger_cost_network.node[0].content_store 	hits[0] 	7833
scalar tiger_cost_network.node[0].content_store 	misses[0] 	121841
scalar tiger_cost_network.node[0].content_store 	decision_yes[0] 	121841
scalar tiger_cost_network.node[0].content_store 	decision_no[0] 	0
scalar tiger_cost_network.node[0].content_store 	decision_ratio[0] 	1
scalar tiger_cost_network.node[1].core_layer 	interests[1] 	180651
scalar tiger_cost_network.node[1].core_layer 	data[1] 	141013
scalar tiger_cost_network.node[1].content_store 	p_hit[1] 	0.21927916258421
scalar tiger_cost_network.node[1].content_store 	hits[1] 	39613
scalar tiger_cost_network.node[1].content_store 	misses[1] 	141038
scalar tiger_cost_network.node[1].content_store 	decision_yes[1] 	141013
scalar tiger_cost_network.node[1].content_store 	decision_no[1] 	0
scalar tiger_cost_network.node[1].content_store 	decision_ratio[1] 	1
scalar tiger_cost_network.node[2].core_layer 	interests[2] 	143146
scalar tiger_cost_network.node[2].core_layer 	data[2] 	140007
scalar tiger_cost_network.node[2].content_store 	p_hit[2] 	0.021928660248977
scalar tiger_cost_network.node[2].content_store 	hits[2] 	3139
scalar tiger_cost_network.node[2].content_store 	misses[2] 	140007
scalar tiger_cost_network.node[2].content_store 	decision_yes[2] 	140007
scalar tiger_cost_network.node[2].content_store 	decision_no[2] 	0
scalar tiger_cost_network.node[2].content_store 	decision_ratio[2] 	1
scalar tiger_cost_network.node[3].core_layer 	interests[3] 	362811
scalar tiger_cost_network.node[3].core_layer 	repo_load[3] 	136253
scalar tiger_cost_network.node[3].core_layer 	data[3] 	183425
scalar tiger_cost_network.node[3].content_store 	p_hit[3] 	0.11882495293693
scalar tiger_cost_network.node[3].content_store 	hits[3] 	43111
scalar tiger_cost_network.node[3].content_store 	misses[3] 	319700
scalar tiger_cost_network.node[3].content_store 	decision_yes[3] 	319678
scalar tiger_cost_network.node[3].content_store 	decision_no[3] 	0
scalar tiger_cost_network.node[3].content_store 	decision_ratio[3] 	1
scalar tiger_cost_network.node[4].core_layer 	interests[4] 	89865
scalar tiger_cost_network.node[4].core_layer 	data[4] 	89711
scalar tiger_cost_network.node[4].content_store 	p_hit[4] 	0.0017136816335615
scalar tiger_cost_network.node[4].content_store 	hits[4] 	154
scalar tiger_cost_network.node[4].content_store 	misses[4] 	89711
scalar tiger_cost_network.node[4].content_store 	decision_yes[4] 	89711
scalar tiger_cost_network.node[4].content_store 	decision_no[4] 	0
scalar tiger_cost_network.node[4].content_store 	decision_ratio[4] 	1
scalar tiger_cost_network.node[5].core_layer 	interests[5] 	0
scalar tiger_cost_network.node[5].core_layer 	data[5] 	0
scalar tiger_cost_network.node[5].content_store 	p_hit[5] 	-nan
scalar tiger_cost_network.node[5].content_store 	hits[5] 	0
scalar tiger_cost_network.node[5].content_store 	misses[5] 	0
scalar tiger_cost_network.node[5].content_store 	decision_yes[5] 	0
scalar tiger_cost_network.node[5].content_store 	decision_no[5] 	0
scalar tiger_cost_network.node[5].content_store 	decision_ratio[5] 	0
scalar tiger_cost_network.node[6].core_layer 	interests[6] 	0
scalar tiger_cost_network.node[6].core_layer 	data[6] 	0
scalar tiger_cost_network.node[6].content_store 	p_hit[6] 	-nan
scalar tiger_cost_network.node[6].content_store 	hits[6] 	0
scalar tiger_cost_network.node[6].content_store 	misses[6] 	0
scalar tiger_cost_network.node[6].content_store 	decision_yes[6] 	0
scalar tiger_cost_network.node[6].content_store 	decision_no[6] 	0
scalar tiger_cost_network.node[6].content_store 	decision_ratio[6] 	0
scalar tiger_cost_network.node[7].core_layer 	interests[7] 	0
scalar tiger_cost_network.node[7].core_layer 	data[7] 	0
scalar tiger_cost_network.node[7].content_store 	p_hit[7] 	-nan
scalar tiger_cost_network.node[7].content_store 	hits[7] 	0
scalar tiger_cost_network.node[7].content_store 	misses[7] 	0
scalar tiger_cost_network.node[7].content_store 	decision_yes[7] 	0
scalar tiger_cost_network.node[7].content_store 	decision_no[7] 	0
scalar tiger_cost_network.node[7].content_store 	decision_ratio[7] 	0
scalar tiger_cost_network.node[8].core_layer 	interests[8] 	0
scalar tiger_cost_network.node[8].core_layer 	data[8] 	0
scalar tiger_cost_network.node[8].content_store 	p_hit[8] 	-nan
scalar tiger_cost_network.node[8].content_store 	hits[8] 	0
scalar tiger_cost_network.node[8].content_store 	misses[8] 	0
scalar tiger_cost_network.node[8].content_store 	decision_yes[8] 	0
scalar tiger_cost_network.node[8].content_store 	decision_no[8] 	0
scalar tiger_cost_network.node[8].content_store 	decision_ratio[8] 	0
scalar tiger_cost_network.node[9].core_layer 	interests[9] 	0
scalar tiger_cost_network.node[9].core_layer 	data[9] 	0
scalar tiger_cost_network.node[9].content_store 	p_hit[9] 	-nan
scalar tiger_cost_network.node[9].content_store 	hits[9] 	0
scalar tiger_cost_network.node[9].content_store 	misses[9] 	0
scalar tiger_cost_network.node[9].content_store 	decision_yes[9] 	0
scalar tiger_cost_network.node[9].content_store 	decision_no[9] 	0
scalar tiger_cost_network.node[9].content_store 	decision_ratio[9] 	0
scalar tiger_cost_network.node[10].core_layer 	interests[10] 	47144
scalar tiger_cost_network.node[10].core_layer 	data[10] 	41810
scalar tiger_cost_network.node[10].content_store 	p_hit[10] 	0.11314271169184
scalar tiger_cost_network.node[10].content_store 	hits[10] 	5334
scalar tiger_cost_network.node[10].content_store 	misses[10] 	41810
scalar tiger_cost_network.node[10].content_store 	decision_yes[10] 	41810
scalar tiger_cost_network.node[10].content_store 	decision_no[10] 	0
scalar tiger_cost_network.node[10].content_store 	decision_ratio[10] 	1
scalar tiger_cost_network.node[11].core_layer 	interests[11] 	41810
scalar tiger_cost_network.node[11].core_layer 	data[11] 	41556
scalar tiger_cost_network.node[11].content_store 	p_hit[11] 	0.0060751016503229
scalar tiger_cost_network.node[11].content_store 	hits[11] 	254
scalar tiger_cost_network.node[11].content_store 	misses[11] 	41556
scalar tiger_cost_network.node[11].content_store 	decision_yes[11] 	41556
scalar tiger_cost_network.node[11].content_store 	decision_no[11] 	0
scalar tiger_cost_network.node[11].content_store 	decision_ratio[11] 	1
scalar tiger_cost_network.node[12].core_layer 	interests[12] 	46654
scalar tiger_cost_network.node[12].core_layer 	data[12] 	41325
scalar tiger_cost_network.node[12].content_store 	p_hit[12] 	0.11422386076221
scalar tiger_cost_network.node[12].content_store 	hits[12] 	5329
scalar tiger_cost_network.node[12].content_store 	misses[12] 	41325
scalar tiger_cost_network.node[12].content_store 	decision_yes[12] 	41325
scalar tiger_cost_network.node[12].content_store 	decision_no[12] 	0
scalar tiger_cost_network.node[12].content_store 	decision_ratio[12] 	1
scalar tiger_cost_network.node[13].core_layer 	interests[13] 	0
scalar tiger_cost_network.node[13].core_layer 	data[13] 	0
scalar tiger_cost_network.node[13].content_store 	p_hit[13] 	-nan
scalar tiger_cost_network.node[13].content_store 	hits[13] 	0
scalar tiger_cost_network.node[13].content_store 	misses[13] 	0
scalar tiger_cost_network.node[13].content_store 	decision_yes[13] 	0
scalar tiger_cost_network.node[13].content_store 	decision_no[13] 	0
scalar tiger_cost_network.node[13].content_store 	decision_ratio[13] 	0
scalar tiger_cost_network.node[14].core_layer 	interests[14] 	134148
scalar tiger_cost_network.node[14].core_layer 	repo_load[14] 	123482
scalar tiger_cost_network.node[14].core_layer 	data[14] 	0
scalar tiger_cost_network.node[14].content_store 	p_hit[14] 	0.07950919879536
scalar tiger_cost_network.node[14].content_store 	hits[14] 	10666
scalar tiger_cost_network.node[14].content_store 	misses[14] 	123482
scalar tiger_cost_network.node[14].content_store 	decision_yes[14] 	123482
scalar tiger_cost_network.node[14].content_store 	decision_no[14] 	0
scalar tiger_cost_network.node[14].content_store 	decision_ratio[14] 	1
scalar tiger_cost_network.node[15].core_layer 	interests[15] 	0
scalar tiger_cost_network.node[15].core_layer 	data[15] 	0
scalar tiger_cost_network.node[15].content_store 	p_hit[15] 	-nan
scalar tiger_cost_network.node[15].content_store 	hits[15] 	0
scalar tiger_cost_network.node[15].content_store 	misses[15] 	0
scalar tiger_cost_network.node[15].content_store 	decision_yes[15] 	0
scalar tiger_cost_network.node[15].content_store 	decision_no[15] 	0
scalar tiger_cost_network.node[15].content_store 	decision_ratio[15] 	0
scalar tiger_cost_network.node[16].core_layer 	interests[16] 	0
scalar tiger_cost_network.node[16].core_layer 	data[16] 	0
scalar tiger_cost_network.node[16].content_store 	p_hit[16] 	-nan
scalar tiger_cost_network.node[16].content_store 	hits[16] 	0
scalar tiger_cost_network.node[16].content_store 	misses[16] 	0
scalar tiger_cost_network.node[16].content_store 	decision_yes[16] 	0
scalar tiger_cost_network.node[16].content_store 	decision_no[16] 	0
scalar tiger_cost_network.node[16].content_store 	decision_ratio[16] 	0
scalar tiger_cost_network.node[17].core_layer 	interests[17] 	92682
scalar tiger_cost_network.node[17].core_layer 	data[17] 	89865
scalar tiger_cost_network.node[17].content_store 	p_hit[17] 	0.030394251310934
scalar tiger_cost_network.node[17].content_store 	hits[17] 	2817
scalar tiger_cost_network.node[17].content_store 	misses[17] 	89865
scalar tiger_cost_network.node[17].content_store 	decision_yes[17] 	89865
scalar tiger_cost_network.node[17].content_store 	decision_no[17] 	0
scalar tiger_cost_network.node[17].content_store 	decision_ratio[17] 	1
scalar tiger_cost_network.node[18].core_layer 	interests[18] 	140172
scalar tiger_cost_network.node[18].core_layer 	data[18] 	139475
scalar tiger_cost_network.node[18].content_store 	p_hit[18] 	0.004972462403333
scalar tiger_cost_network.node[18].content_store 	hits[18] 	697
scalar tiger_cost_network.node[18].content_store 	misses[18] 	139475
scalar tiger_cost_network.node[18].content_store 	decision_yes[18] 	139475
scalar tiger_cost_network.node[18].content_store 	decision_no[18] 	0
scalar tiger_cost_network.node[18].content_store 	decision_ratio[18] 	1
scalar tiger_cost_network.node[19].core_layer 	interests[19] 	0
scalar tiger_cost_network.node[19].core_layer 	data[19] 	0
scalar tiger_cost_network.node[19].content_store 	p_hit[19] 	-nan
scalar tiger_cost_network.node[19].content_store 	hits[19] 	0
scalar tiger_cost_network.node[19].content_store 	misses[19] 	0
scalar tiger_cost_network.node[19].content_store 	decision_yes[19] 	0
scalar tiger_cost_network.node[19].content_store 	decision_no[19] 	0
scalar tiger_cost_network.node[19].content_store 	decision_ratio[19] 	0
scalar tiger_cost_network.node[20].core_layer 	interests[20] 	180145
scalar tiger_cost_network.node[20].core_layer 	data[20] 	140172
scalar tiger_cost_network.node[20].content_store 	p_hit[20] 	0.22170473785007
scalar tiger_cost_network.node[20].content_store 	hits[20] 	39939
scalar tiger_cost_network.node[20].content_store 	misses[20] 	140206
scalar tiger_cost_network.node[20].content_store 	decision_yes[20] 	140172
scalar tiger_cost_network.node[20].content_store 	decision_no[20] 	0
scalar tiger_cost_network.node[20].content_store 	decision_ratio[20] 	1
scalar tiger_cost_network.node[21].core_layer 	interests[21] 	0
scalar tiger_cost_network.node[21].core_layer 	data[21] 	0
scalar tiger_cost_network.node[21].content_store 	p_hit[21] 	-nan
scalar tiger_cost_network.node[21].content_store 	hits[21] 	0
scalar tiger_cost_network.node[21].content_store 	misses[21] 	0
scalar tiger_cost_network.node[21].content_store 	decision_yes[21] 	0
scalar tiger_cost_network.node[21].content_store 	decision_no[21] 	0
scalar tiger_cost_network.node[21].content_store 	decision_ratio[21] 	0
scalar tiger_cost_network.client[1] 	hdistance[1] 	2.6916778315414
scalar tiger_cost_network.client[1] 	downloads[1] 	180626
scalar tiger_cost_network.client[1] 	avg_time[1] 	0.000790764882
scalar tiger_cost_network.client[1] 	interests_sent[1] 	180651
scalar tiger_cost_network.client[3] 	hdistance[3] 	1.758088296659
scalar tiger_cost_network.client[3] 	downloads[3] 	179735
scalar tiger_cost_network.client[3] 	avg_time[3] 	0.000524540372
scalar tiger_cost_network.client[3] 	interests_sent[3] 	179747
scalar tiger_cost_network.client[20] 	hdistance[20] 	3.4854950558267
scalar tiger_cost_network.client[20] 	downloads[20] 	180111
scalar tiger_cost_network.client[20] 	avg_time[20] 	0.001038084976
scalar tiger_cost_network.client[20] 	interests_sent[20] 	180145
