version 2
run General-0-20150720-15:50:55-12226
attr C 1e6
attr D lce
attr F spr
attr R lru
attr a 1
attr brates 1
attr configname General
attr ctlg 1e8
attr datetime 20150720-15:50:55
attr experiment General
attr inifile omnetpp.ini
attr iterationvars "$net=abilene_nodelay, $rep=0, $lambda=100, $a=1, $ctlg=1e8, $brates=1, $F=spr, $ttl=1000, $D=lce, $R=lru, $C=1e6, $window=60, $variance=0.05, $mytime=1800"
attr iterationvars2 "$net=abilene_nodelay, $rep=0, $lambda=100, $a=1, $ctlg=1e8, $brates=1, $F=spr, $ttl=1000, $D=lce, $R=lru, $C=1e6, $window=60, $variance=0.05, $mytime=1800, $repetition=0"
attr lambda 100
attr measurement "$net=abilene_nodelay, $rep=0, $lambda=100, $a=1, $ctlg=1e8, $brates=1, $F=spr, $ttl=1000, $D=lce, $R=lru, $C=1e6, $window=60, $variance=0.05, $mytime=1800"
attr mytime 1800
attr net abilene_nodelay
attr network networks.${net=abilene_nodelay}_network
attr processid 12226
attr rep 0
attr repetition 0
attr replication #0
attr resultdir results
attr runnumber 0
attr seedset 0
attr ttl 1000
attr variance 0.05
attr window 60

scalar . 	C 	1e6
scalar . 	a 	1
scalar . 	brates 	1
scalar . 	ctlg 	1e8
scalar . 	lambda 	100
scalar . 	mytime 	1800
scalar . 	rep 	0
scalar . 	ttl 	1000
scalar . 	variance 	0.05
scalar . 	window 	60
scalar abilene_nodelay_network.content_distribution 	repo-0 	5
scalar abilene_nodelay_network.content_distribution 	repo-1 	8
scalar abilene_nodelay_network.content_distribution 	repo-2 	9
scalar abilene_nodelay_network.content_distribution 	repo-3 	0
scalar abilene_nodelay_network.content_distribution 	repo-4 	1
scalar abilene_nodelay_network.content_distribution 	repo-5 	7
scalar abilene_nodelay_network.content_distribution 	repo-6 	6
scalar abilene_nodelay_network.content_distribution 	repo-7 	2
scalar abilene_nodelay_network.content_distribution 	repo-8 	4
scalar abilene_nodelay_network.content_distribution 	repo-9 	10
scalar abilene_nodelay_network.content_distribution 	repo-10 	3
scalar abilene_nodelay_network.content_distribution 	client-0 	10
scalar abilene_nodelay_network.content_distribution 	client-1 	9
scalar abilene_nodelay_network.content_distribution 	client-2 	8
scalar abilene_nodelay_network.content_distribution 	client-3 	7
scalar abilene_nodelay_network.content_distribution 	client-4 	3
scalar abilene_nodelay_network.content_distribution 	client-5 	6
scalar abilene_nodelay_network.content_distribution 	client-6 	5
scalar abilene_nodelay_network.content_distribution 	client-7 	1
scalar abilene_nodelay_network.content_distribution 	client-8 	4
scalar abilene_nodelay_network.content_distribution 	client-9 	0
scalar abilene_nodelay_network.content_distribution 	client-10 	2
scalar abilene_nodelay_network.content_distribution 	repo-0_card 	9095979
scalar abilene_nodelay_network.content_distribution 	repo-0_price 	0
scalar abilene_nodelay_network.content_distribution 	repo-1_card 	9088625
scalar abilene_nodelay_network.content_distribution 	repo-1_price 	0
scalar abilene_nodelay_network.content_distribution 	repo-2_card 	9091688
scalar abilene_nodelay_network.content_distribution 	repo-2_price 	0
scalar abilene_nodelay_network.content_distribution 	repo-3_card 	9088505
scalar abilene_nodelay_network.content_distribution 	repo-3_price 	0
scalar abilene_nodelay_network.content_distribution 	repo-4_card 	9088374
scalar abilene_nodelay_network.content_distribution 	repo-4_price 	0
scalar abilene_nodelay_network.content_distribution 	repo-5_card 	9091947
scalar abilene_nodelay_network.content_distribution 	repo-5_price 	0
scalar abilene_nodelay_network.content_distribution 	repo-6_card 	9088127
scalar abilene_nodelay_network.content_distribution 	repo-6_price 	0
scalar abilene_nodelay_network.content_distribution 	repo-7_card 	9091123
scalar abilene_nodelay_network.content_distribution 	repo-7_price 	0
scalar abilene_nodelay_network.content_distribution 	repo-8_card 	9090920
scalar abilene_nodelay_network.content_distribution 	repo-8_price 	0
scalar abilene_nodelay_network.content_distribution 	repo-9_card 	9093199
scalar abilene_nodelay_network.content_distribution 	repo-9_price 	0
scalar abilene_nodelay_network.content_distribution 	repo-10_card 	9091513
scalar abilene_nodelay_network.content_distribution 	repo-10_price 	0
scalar abilene_nodelay_network.statistics 	stabilization_time 	30558.2
scalar abilene_nodelay_network.statistics 	p_hit 	0.37625282322698
scalar abilene_nodelay_network.statistics 	interests 	305863.72727273
scalar abilene_nodelay_network.statistics 	data 	125786.72727273
scalar abilene_nodelay_network.statistics 	hdistance 	1.0594558587371
scalar abilene_nodelay_network.statistics 	avg_time 	0
scalar abilene_nodelay_network.statistics 	downloads 	1980847
scalar abilene_nodelay_network.statistics 	total_cost 	0
scalar abilene_nodelay_network.statistics 	total_replicas 	100000000
scalar abilene_nodelay_network.statistics 	"representations_downloaded 1:" 	0
scalar abilene_nodelay_network.statistics 	"slots_per_representation 100:" 	0
scalar abilene_nodelay_network.statistics 	inner_hit 	0.63907156887937
scalar abilene_nodelay_network.statistics 	execution_time 	1245
scalar abilene_nodelay_network.node[0].core_layer 	interests[0] 	226349
scalar abilene_nodelay_network.node[0].core_layer 	repo_load[0] 	60658
scalar abilene_nodelay_network.node[0].core_layer 	data[0] 	56873
scalar abilene_nodelay_network.node[0].core_layer 	slots_sent[face$o[1]->client[0]] 	17987300
scalar abilene_nodelay_network.node[0].core_layer 	slots_sent[face$o[2]->node[1]] 	3608600
scalar abilene_nodelay_network.node[0].core_layer 	slots_sent[face$o[3]->node[10]] 	1039000
scalar abilene_nodelay_network.node[0].content_store 	p_hit[0] 	0.48075317319714
scalar abilene_nodelay_network.node[0].content_store 	hits[0] 	108818
scalar abilene_nodelay_network.node[0].content_store 	misses[0] 	117531
scalar abilene_nodelay_network.node[0].content_store 	decision_yes[0] 	56873
scalar abilene_nodelay_network.node[0].content_store 	decision_no[0] 	60658
scalar abilene_nodelay_network.node[0].content_store 	decision_ratio[0] 	0.48389786524406
scalar abilene_nodelay_network.node[1].core_layer 	interests[1] 	349176
scalar abilene_nodelay_network.node[1].core_layer 	repo_load[1] 	68769
scalar abilene_nodelay_network.node[1].core_layer 	data[1] 	162611
scalar abilene_nodelay_network.node[1].core_layer 	slots_sent[face$o[1]->client[1]] 	18014100
scalar abilene_nodelay_network.node[1].core_layer 	slots_sent[face$o[2]->node[0]] 	4559700
scalar abilene_nodelay_network.node[1].core_layer 	slots_sent[face$o[3]->node[10]] 	3365100
scalar abilene_nodelay_network.node[1].core_layer 	slots_sent[face$o[4]->node[2]] 	8978700
scalar abilene_nodelay_network.node[1].content_store 	p_hit[1] 	0.3373542282402
scalar abilene_nodelay_network.node[1].content_store 	hits[1] 	117796
scalar abilene_nodelay_network.node[1].content_store 	misses[1] 	231380
scalar abilene_nodelay_network.node[1].content_store 	decision_yes[1] 	162611
scalar abilene_nodelay_network.node[1].content_store 	decision_no[1] 	68769
scalar abilene_nodelay_network.node[1].content_store 	decision_ratio[1] 	0.70278762209353
scalar abilene_nodelay_network.node[2].core_layer 	interests[2] 	437231
scalar abilene_nodelay_network.node[2].core_layer 	repo_load[2] 	71192
scalar abilene_nodelay_network.node[2].core_layer 	data[2] 	246326
scalar abilene_nodelay_network.node[2].core_layer 	slots_sent[face$o[1]->client[2]] 	17994500
scalar abilene_nodelay_network.node[2].core_layer 	slots_sent[face$o[2]->node[1]] 	9588600
scalar abilene_nodelay_network.node[2].core_layer 	slots_sent[face$o[3]->node[3]] 	11541000
scalar abilene_nodelay_network.node[2].core_layer 	slots_sent[face$o[4]->node[8]] 	4599000
scalar abilene_nodelay_network.node[2].content_store 	p_hit[2] 	0.27379806097921
scalar abilene_nodelay_network.node[2].content_store 	hits[2] 	119713
scalar abilene_nodelay_network.node[2].content_store 	misses[2] 	317518
scalar abilene_nodelay_network.node[2].content_store 	decision_yes[2] 	246326
scalar abilene_nodelay_network.node[2].content_store 	decision_no[2] 	71192
scalar abilene_nodelay_network.node[2].content_store 	decision_ratio[2] 	0.77578593969476
scalar abilene_nodelay_network.node[3].core_layer 	interests[3] 	414344
scalar abilene_nodelay_network.node[3].core_layer 	repo_load[3] 	65946
scalar abilene_nodelay_network.node[3].core_layer 	data[3] 	225744
scalar abilene_nodelay_network.node[3].core_layer 	slots_sent[face$o[1]->client[3]] 	18034000
scalar abilene_nodelay_network.node[3].core_layer 	slots_sent[face$o[2]->node[2]] 	11357500
scalar abilene_nodelay_network.node[3].core_layer 	slots_sent[face$o[3]->node[4]] 	6954400
scalar abilene_nodelay_network.node[3].core_layer 	slots_sent[face$o[4]->node[7]] 	5088500
scalar abilene_nodelay_network.node[3].content_store 	p_hit[3] 	0.29601973239627
scalar abilene_nodelay_network.node[3].content_store 	hits[3] 	122654
scalar abilene_nodelay_network.node[3].content_store 	misses[3] 	291690
scalar abilene_nodelay_network.node[3].content_store 	decision_yes[3] 	225744
scalar abilene_nodelay_network.node[3].content_store 	decision_no[3] 	65946
scalar abilene_nodelay_network.node[3].content_store 	decision_ratio[3] 	0.77391751517022
scalar abilene_nodelay_network.node[4].core_layer 	interests[4] 	282516
scalar abilene_nodelay_network.node[4].core_layer 	repo_load[4] 	62239
scalar abilene_nodelay_network.node[4].core_layer 	data[4] 	101794
scalar abilene_nodelay_network.node[4].core_layer 	slots_sent[face$o[1]->client[4]] 	18005300
scalar abilene_nodelay_network.node[4].core_layer 	slots_sent[face$o[2]->node[3]] 	6327000
scalar abilene_nodelay_network.node[4].core_layer 	slots_sent[face$o[3]->node[5]] 	3919300
scalar abilene_nodelay_network.node[4].content_store 	p_hit[4] 	0.41938509677328
scalar abilene_nodelay_network.node[4].content_store 	hits[4] 	118483
scalar abilene_nodelay_network.node[4].content_store 	misses[4] 	164033
scalar abilene_nodelay_network.node[4].content_store 	decision_yes[4] 	101794
scalar abilene_nodelay_network.node[4].content_store 	decision_no[4] 	62239
scalar abilene_nodelay_network.node[4].content_store 	decision_ratio[4] 	0.62057025110801
scalar abilene_nodelay_network.node[5].core_layer 	interests[5] 	236841
scalar abilene_nodelay_network.node[5].core_layer 	repo_load[5] 	68496
scalar abilene_nodelay_network.node[5].core_layer 	data[5] 	67026
scalar abilene_nodelay_network.node[5].core_layer 	slots_sent[face$o[1]->client[5]] 	18008200
scalar abilene_nodelay_network.node[5].core_layer 	slots_sent[face$o[2]->node[4]] 	3225000
scalar abilene_nodelay_network.node[5].core_layer 	slots_sent[face$o[3]->node[6]] 	2450900
scalar abilene_nodelay_network.node[5].content_store 	p_hit[5] 	0.42779332970221
scalar abilene_nodelay_network.node[5].content_store 	hits[5] 	101319
scalar abilene_nodelay_network.node[5].content_store 	misses[5] 	135522
scalar abilene_nodelay_network.node[5].content_store 	decision_yes[5] 	67026
scalar abilene_nodelay_network.node[5].content_store 	decision_no[5] 	68496
scalar abilene_nodelay_network.node[5].content_store 	decision_ratio[5] 	0.49457652632045
scalar abilene_nodelay_network.node[6].core_layer 	interests[6] 	259232
scalar abilene_nodelay_network.node[6].core_layer 	repo_load[6] 	60294
scalar abilene_nodelay_network.node[6].core_layer 	data[6] 	84844
scalar abilene_nodelay_network.node[6].core_layer 	slots_sent[face$o[1]->client[6]] 	18030800
scalar abilene_nodelay_network.node[6].core_layer 	slots_sent[face$o[2]->node[5]] 	2783300
scalar abilene_nodelay_network.node[6].core_layer 	slots_sent[face$o[3]->node[7]] 	5109100
scalar abilene_nodelay_network.node[6].content_store 	p_hit[6] 	0.44012313294655
scalar abilene_nodelay_network.node[6].content_store 	hits[6] 	114094
scalar abilene_nodelay_network.node[6].content_store 	misses[6] 	145138
scalar abilene_nodelay_network.node[6].content_store 	decision_yes[6] 	84844
scalar abilene_nodelay_network.node[6].content_store 	decision_no[6] 	60294
scalar abilene_nodelay_network.node[6].content_store 	decision_ratio[6] 	0.58457468064876
scalar abilene_nodelay_network.node[7].core_layer 	interests[7] 	329444
scalar abilene_nodelay_network.node[7].core_layer 	repo_load[7] 	64971
scalar abilene_nodelay_network.node[7].core_layer 	data[7] 	143538
scalar abilene_nodelay_network.node[7].core_layer 	slots_sent[face$o[1]->client[7]] 	18014400
scalar abilene_nodelay_network.node[7].core_layer 	slots_sent[face$o[2]->node[3]] 	4706400
scalar abilene_nodelay_network.node[7].core_layer 	slots_sent[face$o[3]->node[6]] 	6033500
scalar abilene_nodelay_network.node[7].core_layer 	slots_sent[face$o[4]->node[8]] 	4190100
scalar abilene_nodelay_network.node[7].content_store 	p_hit[7] 	0.3670881849419
scalar abilene_nodelay_network.node[7].content_store 	hits[7] 	120935
scalar abilene_nodelay_network.node[7].content_store 	misses[7] 	208509
scalar abilene_nodelay_network.node[7].content_store 	decision_yes[7] 	143538
scalar abilene_nodelay_network.node[7].content_store 	decision_no[7] 	64971
scalar abilene_nodelay_network.node[7].content_store 	decision_ratio[7] 	0.68840193948463
scalar abilene_nodelay_network.node[8].core_layer 	interests[8] 	319080
scalar abilene_nodelay_network.node[8].core_layer 	repo_load[8] 	64438
scalar abilene_nodelay_network.node[8].core_layer 	data[8] 	134593
scalar abilene_nodelay_network.node[8].core_layer 	slots_sent[face$o[1]->client[8]] 	18011700
scalar abilene_nodelay_network.node[8].core_layer 	slots_sent[face$o[2]->node[2]] 	4296400
scalar abilene_nodelay_network.node[8].core_layer 	slots_sent[face$o[3]->node[7]] 	4156200
scalar abilene_nodelay_network.node[8].core_layer 	slots_sent[face$o[4]->node[9]] 	5443700
scalar abilene_nodelay_network.node[8].content_store 	p_hit[8] 	0.37623480005014
scalar abilene_nodelay_network.node[8].content_store 	hits[8] 	120049
scalar abilene_nodelay_network.node[8].content_store 	misses[8] 	199031
scalar abilene_nodelay_network.node[8].content_store 	decision_yes[8] 	134593
scalar abilene_nodelay_network.node[8].content_store 	decision_no[8] 	64438
scalar abilene_nodelay_network.node[8].content_store 	decision_ratio[8] 	0.67624138953228
scalar abilene_nodelay_network.node[9].core_layer 	interests[9] 	258313
scalar abilene_nodelay_network.node[9].core_layer 	repo_load[9] 	61072
scalar abilene_nodelay_network.node[9].core_layer 	data[9] 	84410
scalar abilene_nodelay_network.node[9].core_layer 	slots_sent[face$o[1]->client[9]] 	17975700
scalar abilene_nodelay_network.node[9].core_layer 	slots_sent[face$o[2]->node[10]] 	3185400
scalar abilene_nodelay_network.node[9].core_layer 	slots_sent[face$o[3]->node[8]] 	4670200
scalar abilene_nodelay_network.node[9].content_store 	p_hit[9] 	0.43679954164134
scalar abilene_nodelay_network.node[9].content_store 	hits[9] 	112831
scalar abilene_nodelay_network.node[9].content_store 	misses[9] 	145482
scalar abilene_nodelay_network.node[9].content_store 	decision_yes[9] 	84410
scalar abilene_nodelay_network.node[9].content_store 	decision_no[9] 	61072
scalar abilene_nodelay_network.node[9].content_store 	decision_ratio[9] 	0.5802092355068
scalar abilene_nodelay_network.node[10].core_layer 	interests[10] 	251975
scalar abilene_nodelay_network.node[10].core_layer 	repo_load[10] 	66869
scalar abilene_nodelay_network.node[10].core_layer 	data[10] 	75895
scalar abilene_nodelay_network.node[10].core_layer 	slots_sent[face$o[1]->client[10]] 	18008700
scalar abilene_nodelay_network.node[10].core_layer 	slots_sent[face$o[2]->node[0]] 	1127600
scalar abilene_nodelay_network.node[10].core_layer 	slots_sent[face$o[3]->node[1]] 	3063900
scalar abilene_nodelay_network.node[10].core_layer 	slots_sent[face$o[4]->node[9]] 	2997300
scalar abilene_nodelay_network.node[10].content_store 	p_hit[10] 	0.43341998214109
scalar abilene_nodelay_network.node[10].content_store 	hits[10] 	109211
scalar abilene_nodelay_network.node[10].content_store 	misses[10] 	142764
scalar abilene_nodelay_network.node[10].content_store 	decision_yes[10] 	75895
scalar abilene_nodelay_network.node[10].content_store 	decision_no[10] 	66869
scalar abilene_nodelay_network.node[10].content_store 	decision_ratio[10] 	0.53161161077022
scalar abilene_nodelay_network.client[0] 	hdistance[0].real 	1.1581671512678
scalar abilene_nodelay_network.client[0] 	downloads[0].real 	179873
scalar abilene_nodelay_network.client[0] 	avg_time[0].real 	0
scalar abilene_nodelay_network.client[1] 	hdistance[1].real 	1.0748913351208
scalar abilene_nodelay_network.client[1] 	downloads[1].real 	180141
scalar abilene_nodelay_network.client[1] 	avg_time[1].real 	0
scalar abilene_nodelay_network.client[2] 	hdistance[2].real 	0.97669287837951
scalar abilene_nodelay_network.client[2] 	downloads[2].real 	179945
scalar abilene_nodelay_network.client[2] 	avg_time[2].real 	0
scalar abilene_nodelay_network.client[3] 	hdistance[3].real 	0.97610069868027
scalar abilene_nodelay_network.client[3] 	downloads[3].real 	180340
scalar abilene_nodelay_network.client[3] 	avg_time[3].real 	0
scalar abilene_nodelay_network.client[4] 	hdistance[4].real 	1.0854970480914
scalar abilene_nodelay_network.client[4] 	downloads[4].real 	180053
scalar abilene_nodelay_network.client[4] 	avg_time[4].real 	0
scalar abilene_nodelay_network.client[5] 	hdistance[5].real 	1.2205606334892
scalar abilene_nodelay_network.client[5] 	downloads[5].real 	180082
scalar abilene_nodelay_network.client[5] 	avg_time[5].real 	0
scalar abilene_nodelay_network.client[6] 	hdistance[6].real 	1.1110932404552
scalar abilene_nodelay_network.client[6] 	downloads[6].real 	180308
scalar abilene_nodelay_network.client[6] 	avg_time[6].real 	0
scalar abilene_nodelay_network.client[7] 	hdistance[7].real 	0.96420641264766
scalar abilene_nodelay_network.client[7] 	downloads[7].real 	180144
scalar abilene_nodelay_network.client[7] 	avg_time[7].real 	0
scalar abilene_nodelay_network.client[8] 	hdistance[8].real 	0.94143806525758
scalar abilene_nodelay_network.client[8] 	downloads[8].real 	180117
scalar abilene_nodelay_network.client[8] 	avg_time[8].real 	0
scalar abilene_nodelay_network.client[9] 	hdistance[9].real 	1.0384964146042
scalar abilene_nodelay_network.client[9] 	downloads[9].real 	179757
scalar abilene_nodelay_network.client[9] 	avg_time[9].real 	0
scalar abilene_nodelay_network.client[10] 	hdistance[10].real 	1.1068705681143
scalar abilene_nodelay_network.client[10] 	downloads[10].real 	180087
scalar abilene_nodelay_network.client[10] 	avg_time[10].real 	0
