version 2
run General-1-20150723-15:29:48-31252
attr C 4118
attr D lce
attr F spr
attr R lru
attr a 1
attr brates 1
attr configname General
attr ctlg 1e6
attr datetime 20150723-15:29:48
attr experiment General
attr inifile omnetpp.ini
attr iterationvars "$net=abilene_nodelay, $rep=1, $lambda=100, $a=1, $ctlg=1e6, $brates=1, $F=spr, $ttl=1000, $D=lce, $R=lru, $C=4118, $window=60, $variance=0.05, $mytime=1800"
attr iterationvars2 "$net=abilene_nodelay, $rep=1, $lambda=100, $a=1, $ctlg=1e6, $brates=1, $F=spr, $ttl=1000, $D=lce, $R=lru, $C=4118, $window=60, $variance=0.05, $mytime=1800, $repetition=0"
attr lambda 100
attr measurement "$net=abilene_nodelay, $rep=1, $lambda=100, $a=1, $ctlg=1e6, $brates=1, $F=spr, $ttl=1000, $D=lce, $R=lru, $C=4118, $window=60, $variance=0.05, $mytime=1800"
attr mytime 1800
attr net abilene_nodelay
attr network networks.${net=abilene_nodelay}_network
attr processid 31252
attr rep 1
attr repetition 0
attr replication #0
attr resultdir results
attr runnumber 1
attr seedset 1
attr ttl 1000
attr variance 0.05
attr window 60

scalar . 	C 	4118
scalar . 	a 	1
scalar . 	brates 	1
scalar . 	ctlg 	1e6
scalar . 	lambda 	100
scalar . 	mytime 	1800
scalar . 	rep 	1
scalar . 	ttl 	1000
scalar . 	variance 	0.05
scalar . 	window 	60
scalar abilene_nodelay_network.content_distribution 	repo-0 	10
scalar abilene_nodelay_network.content_distribution 	repo-1 	7
scalar abilene_nodelay_network.content_distribution 	repo-2 	5
scalar abilene_nodelay_network.content_distribution 	repo-3 	1
scalar abilene_nodelay_network.content_distribution 	repo-4 	8
scalar abilene_nodelay_network.content_distribution 	repo-5 	2
scalar abilene_nodelay_network.content_distribution 	repo-6 	9
scalar abilene_nodelay_network.content_distribution 	repo-7 	4
scalar abilene_nodelay_network.content_distribution 	repo-8 	6
scalar abilene_nodelay_network.content_distribution 	repo-9 	3
scalar abilene_nodelay_network.content_distribution 	repo-10 	0
scalar abilene_nodelay_network.content_distribution 	client-0 	7
scalar abilene_nodelay_network.content_distribution 	client-1 	5
scalar abilene_nodelay_network.content_distribution 	client-2 	9
scalar abilene_nodelay_network.content_distribution 	client-3 	6
scalar abilene_nodelay_network.content_distribution 	client-4 	8
scalar abilene_nodelay_network.content_distribution 	client-5 	2
scalar abilene_nodelay_network.content_distribution 	client-6 	1
scalar abilene_nodelay_network.content_distribution 	client-7 	10
scalar abilene_nodelay_network.content_distribution 	client-8 	0
scalar abilene_nodelay_network.content_distribution 	client-9 	3
scalar abilene_nodelay_network.content_distribution 	client-10 	4
scalar abilene_nodelay_network.content_distribution 	repo-0_card 	90939
scalar abilene_nodelay_network.content_distribution 	repo-0_price 	0
scalar abilene_nodelay_network.content_distribution 	repo-1_card 	90490
scalar abilene_nodelay_network.content_distribution 	repo-1_price 	0
scalar abilene_nodelay_network.content_distribution 	repo-2_card 	90363
scalar abilene_nodelay_network.content_distribution 	repo-2_price 	0
scalar abilene_nodelay_network.content_distribution 	repo-3_card 	90686
scalar abilene_nodelay_network.content_distribution 	repo-3_price 	0
scalar abilene_nodelay_network.content_distribution 	repo-4_card 	91009
scalar abilene_nodelay_network.content_distribution 	repo-4_price 	0
scalar abilene_nodelay_network.content_distribution 	repo-5_card 	90927
scalar abilene_nodelay_network.content_distribution 	repo-5_price 	0
scalar abilene_nodelay_network.content_distribution 	repo-6_card 	91541
scalar abilene_nodelay_network.content_distribution 	repo-6_price 	0
scalar abilene_nodelay_network.content_distribution 	repo-7_card 	91332
scalar abilene_nodelay_network.content_distribution 	repo-7_price 	0
scalar abilene_nodelay_network.content_distribution 	repo-8_card 	90743
scalar abilene_nodelay_network.content_distribution 	repo-8_price 	0
scalar abilene_nodelay_network.content_distribution 	repo-9_card 	91264
scalar abilene_nodelay_network.content_distribution 	repo-9_price 	0
scalar abilene_nodelay_network.content_distribution 	repo-10_card 	90706
scalar abilene_nodelay_network.content_distribution 	repo-10_price 	0
scalar abilene_nodelay_network.statistics 	stabilization_time 	142.2
scalar abilene_nodelay_network.statistics 	p_hit 	0.23440852376075
scalar abilene_nodelay_network.statistics 	interests 	374098.63636364
scalar abilene_nodelay_network.statistics 	data 	194095.27272727
scalar abilene_nodelay_network.statistics 	hdistance 	1.5911739360669
scalar abilene_nodelay_network.statistics 	avg_time 	0
scalar abilene_nodelay_network.statistics 	downloads 	1980037
scalar abilene_nodelay_network.statistics 	total_cost 	0
scalar abilene_nodelay_network.statistics 	total_replicas 	1000000
scalar abilene_nodelay_network.statistics 	"representations_downloaded 1:" 	0
scalar abilene_nodelay_network.statistics 	"slots_per_representation 100:" 	0
scalar abilene_nodelay_network.statistics 	inner_hit 	0.48716816907967
scalar abilene_nodelay_network.statistics 	execution_time 	94
scalar abilene_nodelay_network.node[0].core_layer 	interests[0] 	252860
scalar abilene_nodelay_network.node[0].core_layer 	repo_load[0] 	87002
scalar abilene_nodelay_network.node[0].core_layer 	data[0] 	84019
scalar abilene_nodelay_network.node[0].core_layer 	slots_sent[face$o[1]->client[0]] 	18007300
scalar abilene_nodelay_network.node[0].core_layer 	slots_sent[face$o[2]->node[1]] 	5687200
scalar abilene_nodelay_network.node[0].core_layer 	slots_sent[face$o[3]->node[10]] 	1591500
scalar abilene_nodelay_network.node[0].content_store 	p_hit[0] 	0.32365340504627
scalar abilene_nodelay_network.node[0].content_store 	hits[0] 	81839
scalar abilene_nodelay_network.node[0].content_store 	misses[0] 	171021
scalar abilene_nodelay_network.node[0].content_store 	decision_yes[0] 	84019
scalar abilene_nodelay_network.node[0].content_store 	decision_no[0] 	87002
scalar abilene_nodelay_network.node[0].content_store 	decision_ratio[0] 	0.49127884879635
scalar abilene_nodelay_network.node[1].core_layer 	interests[1] 	437481
scalar abilene_nodelay_network.node[1].core_layer 	repo_load[1] 	103213
scalar abilene_nodelay_network.node[1].core_layer 	data[1] 	252729
scalar abilene_nodelay_network.node[1].core_layer 	slots_sent[face$o[1]->client[1]] 	17954600
scalar abilene_nodelay_network.node[1].core_layer 	slots_sent[face$o[2]->node[0]] 	6720300
scalar abilene_nodelay_network.node[1].core_layer 	slots_sent[face$o[3]->node[10]] 	5170700
scalar abilene_nodelay_network.node[1].core_layer 	slots_sent[face$o[4]->node[2]] 	13902500
scalar abilene_nodelay_network.node[1].content_store 	p_hit[1] 	0.18638295148818
scalar abilene_nodelay_network.node[1].content_store 	hits[1] 	81539
scalar abilene_nodelay_network.node[1].content_store 	misses[1] 	355942
scalar abilene_nodelay_network.node[1].content_store 	decision_yes[1] 	252729
scalar abilene_nodelay_network.node[1].content_store 	decision_no[1] 	103213
scalar abilene_nodelay_network.node[1].content_store 	decision_ratio[1] 	0.7100286001652
scalar abilene_nodelay_network.node[2].core_layer 	interests[2] 	576794
scalar abilene_nodelay_network.node[2].core_layer 	repo_load[2] 	95853
scalar abilene_nodelay_network.node[2].core_layer 	data[2] 	381436
scalar abilene_nodelay_network.node[2].core_layer 	slots_sent[face$o[1]->client[2]] 	17985000
scalar abilene_nodelay_network.node[2].core_layer 	slots_sent[face$o[2]->node[1]] 	14850100
scalar abilene_nodelay_network.node[2].core_layer 	slots_sent[face$o[3]->node[3]] 	17768100
scalar abilene_nodelay_network.node[2].core_layer 	slots_sent[face$o[4]->node[8]] 	7076200
scalar abilene_nodelay_network.node[2].content_store 	p_hit[2] 	0.17251393045004
scalar abilene_nodelay_network.node[2].content_store 	hits[2] 	99505
scalar abilene_nodelay_network.node[2].content_store 	misses[2] 	477289
scalar abilene_nodelay_network.node[2].content_store 	decision_yes[2] 	381436
scalar abilene_nodelay_network.node[2].content_store 	decision_no[2] 	95853
scalar abilene_nodelay_network.node[2].content_store 	decision_ratio[2] 	0.79917199013596
scalar abilene_nodelay_network.node[3].core_layer 	interests[3] 	544198
scalar abilene_nodelay_network.node[3].core_layer 	repo_load[3] 	98063
scalar abilene_nodelay_network.node[3].core_layer 	data[3] 	349238
scalar abilene_nodelay_network.node[3].core_layer 	slots_sent[face$o[1]->client[3]] 	18032600
scalar abilene_nodelay_network.node[3].core_layer 	slots_sent[face$o[2]->node[2]] 	17627600
scalar abilene_nodelay_network.node[3].core_layer 	slots_sent[face$o[3]->node[4]] 	10889200
scalar abilene_nodelay_network.node[3].core_layer 	slots_sent[face$o[4]->node[7]] 	7870400
scalar abilene_nodelay_network.node[3].content_store 	p_hit[3] 	0.178054678628
scalar abilene_nodelay_network.node[3].content_store 	hits[3] 	96897
scalar abilene_nodelay_network.node[3].content_store 	misses[3] 	447301
scalar abilene_nodelay_network.node[3].content_store 	decision_yes[3] 	349238
scalar abilene_nodelay_network.node[3].content_store 	decision_no[3] 	98063
scalar abilene_nodelay_network.node[3].content_store 	decision_ratio[3] 	0.78076731328568
scalar abilene_nodelay_network.node[4].core_layer 	interests[4] 	338729
scalar abilene_nodelay_network.node[4].core_layer 	repo_load[4] 	92463
scalar abilene_nodelay_network.node[4].core_layer 	data[4] 	159219
scalar abilene_nodelay_network.node[4].core_layer 	slots_sent[face$o[1]->client[4]] 	17969600
scalar abilene_nodelay_network.node[4].core_layer 	slots_sent[face$o[2]->node[3]] 	9980400
scalar abilene_nodelay_network.node[4].core_layer 	slots_sent[face$o[3]->node[5]] 	5922900
scalar abilene_nodelay_network.node[4].content_store 	p_hit[4] 	0.25698124459376
scalar abilene_nodelay_network.node[4].content_store 	hits[4] 	87047
scalar abilene_nodelay_network.node[4].content_store 	misses[4] 	251682
scalar abilene_nodelay_network.node[4].content_store 	decision_yes[4] 	159219
scalar abilene_nodelay_network.node[4].content_store 	decision_no[4] 	92463
scalar abilene_nodelay_network.node[4].content_store 	decision_ratio[4] 	0.63261973442678
scalar abilene_nodelay_network.node[5].core_layer 	interests[5] 	268544
scalar abilene_nodelay_network.node[5].core_layer 	repo_load[5] 	81924
scalar abilene_nodelay_network.node[5].core_layer 	data[5] 	100252
scalar abilene_nodelay_network.node[5].core_layer 	slots_sent[face$o[1]->client[5]] 	17999600
scalar abilene_nodelay_network.node[5].core_layer 	slots_sent[face$o[2]->node[4]] 	5032700
scalar abilene_nodelay_network.node[5].core_layer 	slots_sent[face$o[3]->node[6]] 	3822100
scalar abilene_nodelay_network.node[5].content_store 	p_hit[5] 	0.32161582459485
scalar abilene_nodelay_network.node[5].content_store 	hits[5] 	86368
scalar abilene_nodelay_network.node[5].content_store 	misses[5] 	182176
scalar abilene_nodelay_network.node[5].content_store 	decision_yes[5] 	100252
scalar abilene_nodelay_network.node[5].content_store 	decision_no[5] 	81924
scalar abilene_nodelay_network.node[5].content_store 	decision_ratio[5] 	0.55030300368874
scalar abilene_nodelay_network.node[6].core_layer 	interests[6] 	300076
scalar abilene_nodelay_network.node[6].core_layer 	repo_load[6] 	93115
scalar abilene_nodelay_network.node[6].core_layer 	data[6] 	130825
scalar abilene_nodelay_network.node[6].core_layer 	slots_sent[face$o[1]->client[6]] 	17973400
scalar abilene_nodelay_network.node[6].core_layer 	slots_sent[face$o[2]->node[5]] 	4102300
scalar abilene_nodelay_network.node[6].core_layer 	slots_sent[face$o[3]->node[7]] 	7931900
scalar abilene_nodelay_network.node[6].content_store 	p_hit[6] 	0.25372239032778
scalar abilene_nodelay_network.node[6].content_store 	hits[6] 	76136
scalar abilene_nodelay_network.node[6].content_store 	misses[6] 	223940
scalar abilene_nodelay_network.node[6].content_store 	decision_yes[6] 	130825
scalar abilene_nodelay_network.node[6].content_store 	decision_no[6] 	93115
scalar abilene_nodelay_network.node[6].content_store 	decision_ratio[6] 	0.58419665981959
scalar abilene_nodelay_network.node[7].core_layer 	interests[7] 	408105
scalar abilene_nodelay_network.node[7].core_layer 	repo_load[7] 	91598
scalar abilene_nodelay_network.node[7].core_layer 	data[7] 	222644
scalar abilene_nodelay_network.node[7].core_layer 	slots_sent[face$o[1]->client[7]] 	18007300
scalar abilene_nodelay_network.node[7].core_layer 	slots_sent[face$o[2]->node[3]] 	7175300
scalar abilene_nodelay_network.node[7].core_layer 	slots_sent[face$o[3]->node[6]] 	9260400
scalar abilene_nodelay_network.node[7].core_layer 	slots_sent[face$o[4]->node[8]] 	6367500
scalar abilene_nodelay_network.node[7].content_store 	p_hit[7] 	0.22999718209774
scalar abilene_nodelay_network.node[7].content_store 	hits[7] 	93863
scalar abilene_nodelay_network.node[7].content_store 	misses[7] 	314242
scalar abilene_nodelay_network.node[7].content_store 	decision_yes[7] 	222644
scalar abilene_nodelay_network.node[7].content_store 	decision_no[7] 	91598
scalar abilene_nodelay_network.node[7].content_store 	decision_ratio[7] 	0.70851127475003
scalar abilene_nodelay_network.node[8].core_layer 	interests[8] 	394885
scalar abilene_nodelay_network.node[8].core_layer 	repo_load[8] 	95277
scalar abilene_nodelay_network.node[8].core_layer 	data[8] 	208042
scalar abilene_nodelay_network.node[8].core_layer 	slots_sent[face$o[1]->client[8]] 	18009400
scalar abilene_nodelay_network.node[8].core_layer 	slots_sent[face$o[2]->node[2]] 	6613500
scalar abilene_nodelay_network.node[8].core_layer 	slots_sent[face$o[3]->node[7]] 	6462100
scalar abilene_nodelay_network.node[8].core_layer 	slots_sent[face$o[4]->node[9]] 	8403500
scalar abilene_nodelay_network.node[8].content_store 	p_hit[8] 	0.23188016764374
scalar abilene_nodelay_network.node[8].content_store 	hits[8] 	91566
scalar abilene_nodelay_network.node[8].content_store 	misses[8] 	303319
scalar abilene_nodelay_network.node[8].content_store 	decision_yes[8] 	208042
scalar abilene_nodelay_network.node[8].content_store 	decision_no[8] 	95277
scalar abilene_nodelay_network.node[8].content_store 	decision_ratio[8] 	0.68588515721073
scalar abilene_nodelay_network.node[9].core_layer 	interests[9] 	302302
scalar abilene_nodelay_network.node[9].core_layer 	repo_load[9] 	87897
scalar abilene_nodelay_network.node[9].core_layer 	data[9] 	130990
scalar abilene_nodelay_network.node[9].core_layer 	slots_sent[face$o[1]->client[9]] 	18066500
scalar abilene_nodelay_network.node[9].core_layer 	slots_sent[face$o[2]->node[10]] 	4803200
scalar abilene_nodelay_network.node[9].core_layer 	slots_sent[face$o[3]->node[8]] 	7360500
scalar abilene_nodelay_network.node[9].content_store 	p_hit[9] 	0.27593267659493
scalar abilene_nodelay_network.node[9].content_store 	hits[9] 	83415
scalar abilene_nodelay_network.node[9].content_store 	misses[9] 	218887
scalar abilene_nodelay_network.node[9].content_store 	decision_yes[9] 	130990
scalar abilene_nodelay_network.node[9].content_store 	decision_no[9] 	87897
scalar abilene_nodelay_network.node[9].content_store 	decision_ratio[9] 	0.59843663625524
scalar abilene_nodelay_network.node[10].core_layer 	interests[10] 	291111
scalar abilene_nodelay_network.node[10].core_layer 	repo_load[10] 	89021
scalar abilene_nodelay_network.node[10].core_layer 	data[10] 	115654
scalar abilene_nodelay_network.node[10].core_layer 	slots_sent[face$o[1]->client[10]] 	17998400
scalar abilene_nodelay_network.node[10].core_layer 	slots_sent[face$o[2]->node[0]] 	1681600
scalar abilene_nodelay_network.node[10].core_layer 	slots_sent[face$o[3]->node[1]] 	4735600
scalar abilene_nodelay_network.node[10].core_layer 	slots_sent[face$o[4]->node[9]] 	4695500
scalar abilene_nodelay_network.node[10].content_store 	p_hit[10] 	0.29691767057926
scalar abilene_nodelay_network.node[10].content_store 	hits[10] 	86436
scalar abilene_nodelay_network.node[10].content_store 	misses[10] 	204675
scalar abilene_nodelay_network.node[10].content_store 	decision_yes[10] 	115654
scalar abilene_nodelay_network.node[10].content_store 	decision_no[10] 	89021
scalar abilene_nodelay_network.node[10].content_store 	decision_ratio[10] 	0.56506168315622
scalar abilene_nodelay_network.client[0] 	hdistance[0].real 	1.7576038606565
scalar abilene_nodelay_network.client[0] 	downloads[0].real 	180073
scalar abilene_nodelay_network.client[0] 	avg_time[0].real 	0
scalar abilene_nodelay_network.client[1] 	hdistance[1].real 	1.6247312666392
scalar abilene_nodelay_network.client[1] 	downloads[1].real 	179546
scalar abilene_nodelay_network.client[1] 	avg_time[1].real 	0
scalar abilene_nodelay_network.client[2] 	hdistance[2].real 	1.4245259938838
scalar abilene_nodelay_network.client[2] 	downloads[2].real 	179850
scalar abilene_nodelay_network.client[2] 	avg_time[2].real 	0
scalar abilene_nodelay_network.client[3] 	hdistance[3].real 	1.4670707496423
scalar abilene_nodelay_network.client[3] 	downloads[3].real 	180326
scalar abilene_nodelay_network.client[3] 	avg_time[3].real 	0
scalar abilene_nodelay_network.client[4] 	hdistance[4].real 	1.6567758881667
scalar abilene_nodelay_network.client[4] 	downloads[4].real 	179696
scalar abilene_nodelay_network.client[4] 	avg_time[4].real 	0
scalar abilene_nodelay_network.client[5] 	hdistance[5].real 	1.756255694571
scalar abilene_nodelay_network.client[5] 	downloads[5].real 	179996
scalar abilene_nodelay_network.client[5] 	avg_time[5].real 	0
scalar abilene_nodelay_network.client[6] 	hdistance[6].real 	1.7303237005797
scalar abilene_nodelay_network.client[6] 	downloads[6].real 	179734
scalar abilene_nodelay_network.client[6] 	avg_time[6].real 	0
scalar abilene_nodelay_network.client[7] 	hdistance[7].real 	1.4581586356644
scalar abilene_nodelay_network.client[7] 	downloads[7].real 	180073
scalar abilene_nodelay_network.client[7] 	avg_time[7].real 	0
scalar abilene_nodelay_network.client[8] 	hdistance[8].real 	1.4215964996057
scalar abilene_nodelay_network.client[8] 	downloads[8].real 	180094
scalar abilene_nodelay_network.client[8] 	avg_time[8].real 	0
scalar abilene_nodelay_network.client[9] 	hdistance[9].real 	1.5807821105361
scalar abilene_nodelay_network.client[9] 	downloads[9].real 	180665
scalar abilene_nodelay_network.client[9] 	avg_time[9].real 	0
scalar abilene_nodelay_network.client[10] 	hdistance[10].real 	1.6250888967908
scalar abilene_nodelay_network.client[10] 	downloads[10].real 	179984
scalar abilene_nodelay_network.client[10] 	avg_time[10].real 	0
