version 2
run General-3-20150723-15:29:48-31254
attr C 4118
attr D lce
attr F spr
attr R lru
attr a 1
attr brates 1
attr configname General
attr ctlg 1e6
attr datetime 20150723-15:29:48
attr experiment General
attr inifile omnetpp.ini
attr iterationvars "$net=abilene_nodelay, $rep=3, $lambda=100, $a=1, $ctlg=1e6, $brates=1, $F=spr, $ttl=1000, $D=lce, $R=lru, $C=4118, $window=60, $variance=0.05, $mytime=1800"
attr iterationvars2 "$net=abilene_nodelay, $rep=3, $lambda=100, $a=1, $ctlg=1e6, $brates=1, $F=spr, $ttl=1000, $D=lce, $R=lru, $C=4118, $window=60, $variance=0.05, $mytime=1800, $repetition=0"
attr lambda 100
attr measurement "$net=abilene_nodelay, $rep=3, $lambda=100, $a=1, $ctlg=1e6, $brates=1, $F=spr, $ttl=1000, $D=lce, $R=lru, $C=4118, $window=60, $variance=0.05, $mytime=1800"
attr mytime 1800
attr net abilene_nodelay
attr network networks.${net=abilene_nodelay}_network
attr processid 31254
attr rep 3
attr repetition 0
attr replication #0
attr resultdir results
attr runnumber 3
attr seedset 3
attr ttl 1000
attr variance 0.05
attr window 60

scalar . 	C 	4118
scalar . 	a 	1
scalar . 	brates 	1
scalar . 	ctlg 	1e6
scalar . 	lambda 	100
scalar . 	mytime 	1800
scalar . 	rep 	3
scalar . 	ttl 	1000
scalar . 	variance 	0.05
scalar . 	window 	60
scalar abilene_nodelay_network.content_distribution 	repo-0 	9
scalar abilene_nodelay_network.content_distribution 	repo-1 	4
scalar abilene_nodelay_network.content_distribution 	repo-2 	0
scalar abilene_nodelay_network.content_distribution 	repo-3 	1
scalar abilene_nodelay_network.content_distribution 	repo-4 	10
scalar abilene_nodelay_network.content_distribution 	repo-5 	8
scalar abilene_nodelay_network.content_distribution 	repo-6 	6
scalar abilene_nodelay_network.content_distribution 	repo-7 	3
scalar abilene_nodelay_network.content_distribution 	repo-8 	5
scalar abilene_nodelay_network.content_distribution 	repo-9 	2
scalar abilene_nodelay_network.content_distribution 	repo-10 	7
scalar abilene_nodelay_network.content_distribution 	client-0 	8
scalar abilene_nodelay_network.content_distribution 	client-1 	10
scalar abilene_nodelay_network.content_distribution 	client-2 	9
scalar abilene_nodelay_network.content_distribution 	client-3 	2
scalar abilene_nodelay_network.content_distribution 	client-4 	0
scalar abilene_nodelay_network.content_distribution 	client-5 	6
scalar abilene_nodelay_network.content_distribution 	client-6 	7
scalar abilene_nodelay_network.content_distribution 	client-7 	1
scalar abilene_nodelay_network.content_distribution 	client-8 	4
scalar abilene_nodelay_network.content_distribution 	client-9 	5
scalar abilene_nodelay_network.content_distribution 	client-10 	3
scalar abilene_nodelay_network.content_distribution 	repo-0_card 	90872
scalar abilene_nodelay_network.content_distribution 	repo-0_price 	0
scalar abilene_nodelay_network.content_distribution 	repo-1_card 	90744
scalar abilene_nodelay_network.content_distribution 	repo-1_price 	0
scalar abilene_nodelay_network.content_distribution 	repo-2_card 	90692
scalar abilene_nodelay_network.content_distribution 	repo-2_price 	0
scalar abilene_nodelay_network.content_distribution 	repo-3_card 	90815
scalar abilene_nodelay_network.content_distribution 	repo-3_price 	0
scalar abilene_nodelay_network.content_distribution 	repo-4_card 	90784
scalar abilene_nodelay_network.content_distribution 	repo-4_price 	0
scalar abilene_nodelay_network.content_distribution 	repo-5_card 	91461
scalar abilene_nodelay_network.content_distribution 	repo-5_price 	0
scalar abilene_nodelay_network.content_distribution 	repo-6_card 	90999
scalar abilene_nodelay_network.content_distribution 	repo-6_price 	0
scalar abilene_nodelay_network.content_distribution 	repo-7_card 	90956
scalar abilene_nodelay_network.content_distribution 	repo-7_price 	0
scalar abilene_nodelay_network.content_distribution 	repo-8_card 	91035
scalar abilene_nodelay_network.content_distribution 	repo-8_price 	0
scalar abilene_nodelay_network.content_distribution 	repo-9_card 	90758
scalar abilene_nodelay_network.content_distribution 	repo-9_price 	0
scalar abilene_nodelay_network.content_distribution 	repo-10_card 	90884
scalar abilene_nodelay_network.content_distribution 	repo-10_price 	0
scalar abilene_nodelay_network.statistics 	stabilization_time 	141.9
scalar abilene_nodelay_network.statistics 	p_hit 	0.23418153470409
scalar abilene_nodelay_network.statistics 	interests 	373635.54545455
scalar abilene_nodelay_network.statistics 	data 	193855.72727273
scalar abilene_nodelay_network.statistics 	hdistance 	1.5917095799867
scalar abilene_nodelay_network.statistics 	avg_time 	0
scalar abilene_nodelay_network.statistics 	downloads 	1977578
scalar abilene_nodelay_network.statistics 	total_cost 	0
scalar abilene_nodelay_network.statistics 	total_replicas 	1000000
scalar abilene_nodelay_network.statistics 	"representations_downloaded 1:" 	0
scalar abilene_nodelay_network.statistics 	"slots_per_representation 100:" 	0
scalar abilene_nodelay_network.statistics 	inner_hit 	0.48669837548759
scalar abilene_nodelay_network.statistics 	execution_time 	91
scalar abilene_nodelay_network.node[0].core_layer 	interests[0] 	253742
scalar abilene_nodelay_network.node[0].core_layer 	repo_load[0] 	92371
scalar abilene_nodelay_network.node[0].core_layer 	data[0] 	83620
scalar abilene_nodelay_network.node[0].core_layer 	slots_sent[face$o[1]->client[0]] 	17970600
scalar abilene_nodelay_network.node[0].core_layer 	slots_sent[face$o[2]->node[1]] 	5779400
scalar abilene_nodelay_network.node[0].core_layer 	slots_sent[face$o[3]->node[10]] 	1624200
scalar abilene_nodelay_network.node[0].content_store 	p_hit[0] 	0.30641754222793
scalar abilene_nodelay_network.node[0].content_store 	hits[0] 	77751
scalar abilene_nodelay_network.node[0].content_store 	misses[0] 	175991
scalar abilene_nodelay_network.node[0].content_store 	decision_yes[0] 	83620
scalar abilene_nodelay_network.node[0].content_store 	decision_no[0] 	92371
scalar abilene_nodelay_network.node[0].content_store 	decision_ratio[0] 	0.47513793318977
scalar abilene_nodelay_network.node[1].core_layer 	interests[1] 	438053
scalar abilene_nodelay_network.node[1].core_layer 	repo_load[1] 	94776
scalar abilene_nodelay_network.node[1].core_layer 	data[1] 	253841
scalar abilene_nodelay_network.node[1].core_layer 	slots_sent[face$o[1]->client[1]] 	18015400
scalar abilene_nodelay_network.node[1].core_layer 	slots_sent[face$o[2]->node[0]] 	6701500
scalar abilene_nodelay_network.node[1].core_layer 	slots_sent[face$o[3]->node[10]] 	5109500
scalar abilene_nodelay_network.node[1].core_layer 	slots_sent[face$o[4]->node[2]] 	13978900
scalar abilene_nodelay_network.node[1].content_store 	p_hit[1] 	0.20416707567349
scalar abilene_nodelay_network.node[1].content_store 	hits[1] 	89436
scalar abilene_nodelay_network.node[1].content_store 	misses[1] 	348617
scalar abilene_nodelay_network.node[1].content_store 	decision_yes[1] 	253841
scalar abilene_nodelay_network.node[1].content_store 	decision_no[1] 	94776
scalar abilene_nodelay_network.node[1].content_store 	decision_ratio[1] 	0.72813718206513
scalar abilene_nodelay_network.node[2].core_layer 	interests[2] 	579236
scalar abilene_nodelay_network.node[2].core_layer 	repo_load[2] 	98268
scalar abilene_nodelay_network.node[2].core_layer 	data[2] 	380900
scalar abilene_nodelay_network.node[2].core_layer 	slots_sent[face$o[1]->client[2]] 	17976500
scalar abilene_nodelay_network.node[2].core_layer 	slots_sent[face$o[2]->node[1]] 	14858500
scalar abilene_nodelay_network.node[2].core_layer 	slots_sent[face$o[3]->node[3]] 	18043400
scalar abilene_nodelay_network.node[2].core_layer 	slots_sent[face$o[4]->node[8]] 	7045200
scalar abilene_nodelay_network.node[2].content_store 	p_hit[2] 	0.17275859925833
scalar abilene_nodelay_network.node[2].content_store 	hits[2] 	100068
scalar abilene_nodelay_network.node[2].content_store 	misses[2] 	479168
scalar abilene_nodelay_network.node[2].content_store 	decision_yes[2] 	380900
scalar abilene_nodelay_network.node[2].content_store 	decision_no[2] 	98268
scalar abilene_nodelay_network.node[2].content_store 	decision_ratio[2] 	0.79491952718045
scalar abilene_nodelay_network.node[3].core_layer 	interests[3] 	544531
scalar abilene_nodelay_network.node[3].core_layer 	repo_load[3] 	93053
scalar abilene_nodelay_network.node[3].core_layer 	data[3] 	349922
scalar abilene_nodelay_network.node[3].core_layer 	slots_sent[face$o[1]->client[3]] 	18013100
scalar abilene_nodelay_network.node[3].core_layer 	slots_sent[face$o[2]->node[2]] 	17474600
scalar abilene_nodelay_network.node[3].core_layer 	slots_sent[face$o[3]->node[4]] 	11028300
scalar abilene_nodelay_network.node[3].core_layer 	slots_sent[face$o[4]->node[7]] 	7937100
scalar abilene_nodelay_network.node[3].content_store 	p_hit[3] 	0.18650177859479
scalar abilene_nodelay_network.node[3].content_store 	hits[3] 	101556
scalar abilene_nodelay_network.node[3].content_store 	misses[3] 	442975
scalar abilene_nodelay_network.node[3].content_store 	decision_yes[3] 	349922
scalar abilene_nodelay_network.node[3].content_store 	decision_no[3] 	93053
scalar abilene_nodelay_network.node[3].content_store 	decision_ratio[3] 	0.78993622664936
scalar abilene_nodelay_network.node[4].core_layer 	interests[4] 	336030
scalar abilene_nodelay_network.node[4].core_layer 	repo_load[4] 	91328
scalar abilene_nodelay_network.node[4].core_layer 	data[4] 	159672
scalar abilene_nodelay_network.node[4].core_layer 	slots_sent[face$o[1]->client[4]] 	17987500
scalar abilene_nodelay_network.node[4].core_layer 	slots_sent[face$o[2]->node[3]] 	9732500
scalar abilene_nodelay_network.node[4].core_layer 	slots_sent[face$o[3]->node[5]] 	5883000
scalar abilene_nodelay_network.node[4].content_store 	p_hit[4] 	0.25304288307592
scalar abilene_nodelay_network.node[4].content_store 	hits[4] 	85030
scalar abilene_nodelay_network.node[4].content_store 	misses[4] 	251000
scalar abilene_nodelay_network.node[4].content_store 	decision_yes[4] 	159672
scalar abilene_nodelay_network.node[4].content_store 	decision_no[4] 	91328
scalar abilene_nodelay_network.node[4].content_store 	decision_ratio[4] 	0.63614342629482
scalar abilene_nodelay_network.node[5].core_layer 	interests[5] 	265890
scalar abilene_nodelay_network.node[5].core_layer 	repo_load[5] 	79813
scalar abilene_nodelay_network.node[5].core_layer 	data[5] 	100065
scalar abilene_nodelay_network.node[5].core_layer 	slots_sent[face$o[1]->client[5]] 	17953400
scalar abilene_nodelay_network.node[5].core_layer 	slots_sent[face$o[2]->node[4]] 	4938900
scalar abilene_nodelay_network.node[5].core_layer 	slots_sent[face$o[3]->node[6]] 	3696700
scalar abilene_nodelay_network.node[5].content_store 	p_hit[5] 	0.32348715634285
scalar abilene_nodelay_network.node[5].content_store 	hits[5] 	86012
scalar abilene_nodelay_network.node[5].content_store 	misses[5] 	179878
scalar abilene_nodelay_network.node[5].content_store 	decision_yes[5] 	100065
scalar abilene_nodelay_network.node[5].content_store 	decision_no[5] 	79813
scalar abilene_nodelay_network.node[5].content_store 	decision_ratio[5] 	0.55629371018135
scalar abilene_nodelay_network.node[6].core_layer 	interests[6] 	299363
scalar abilene_nodelay_network.node[6].core_layer 	repo_load[6] 	82467
scalar abilene_nodelay_network.node[6].core_layer 	data[6] 	130112
scalar abilene_nodelay_network.node[6].core_layer 	slots_sent[face$o[1]->client[6]] 	17975600
scalar abilene_nodelay_network.node[6].core_layer 	slots_sent[face$o[2]->node[5]] 	4123500
scalar abilene_nodelay_network.node[6].core_layer 	slots_sent[face$o[3]->node[7]] 	7837200
scalar abilene_nodelay_network.node[6].content_store 	p_hit[6] 	0.28989554487361
scalar abilene_nodelay_network.node[6].content_store 	hits[6] 	86784
scalar abilene_nodelay_network.node[6].content_store 	misses[6] 	212579
scalar abilene_nodelay_network.node[6].content_store 	decision_yes[6] 	130112
scalar abilene_nodelay_network.node[6].content_store 	decision_no[6] 	82467
scalar abilene_nodelay_network.node[6].content_store 	decision_ratio[6] 	0.61206422083084
scalar abilene_nodelay_network.node[7].core_layer 	interests[7] 	408637
scalar abilene_nodelay_network.node[7].core_layer 	repo_load[7] 	93261
scalar abilene_nodelay_network.node[7].core_layer 	data[7] 	222310
scalar abilene_nodelay_network.node[7].core_layer 	slots_sent[face$o[1]->client[7]] 	18048400
scalar abilene_nodelay_network.node[7].core_layer 	slots_sent[face$o[2]->node[3]] 	7216300
scalar abilene_nodelay_network.node[7].core_layer 	slots_sent[face$o[3]->node[6]] 	9314500
scalar abilene_nodelay_network.node[7].core_layer 	slots_sent[face$o[4]->node[8]] 	6284500
scalar abilene_nodelay_network.node[7].content_store 	p_hit[7] 	0.22774736502079
scalar abilene_nodelay_network.node[7].content_store 	hits[7] 	93066
scalar abilene_nodelay_network.node[7].content_store 	misses[7] 	315571
scalar abilene_nodelay_network.node[7].content_store 	decision_yes[7] 	222310
scalar abilene_nodelay_network.node[7].content_store 	decision_no[7] 	93261
scalar abilene_nodelay_network.node[7].content_store 	decision_ratio[7] 	0.70446904183211
scalar abilene_nodelay_network.node[8].core_layer 	interests[8] 	393273
scalar abilene_nodelay_network.node[8].core_layer 	repo_load[8] 	93196
scalar abilene_nodelay_network.node[8].core_layer 	data[8] 	207088
scalar abilene_nodelay_network.node[8].core_layer 	slots_sent[face$o[1]->client[8]] 	17959300
scalar abilene_nodelay_network.node[8].core_layer 	slots_sent[face$o[2]->node[2]] 	6636500
scalar abilene_nodelay_network.node[8].core_layer 	slots_sent[face$o[3]->node[7]] 	6456700
scalar abilene_nodelay_network.node[8].core_layer 	slots_sent[face$o[4]->node[9]] 	8274800
scalar abilene_nodelay_network.node[8].content_store 	p_hit[8] 	0.23644898073349
scalar abilene_nodelay_network.node[8].content_store 	hits[8] 	92989
scalar abilene_nodelay_network.node[8].content_store 	misses[8] 	300284
scalar abilene_nodelay_network.node[8].content_store 	decision_yes[8] 	207088
scalar abilene_nodelay_network.node[8].content_store 	decision_no[8] 	93196
scalar abilene_nodelay_network.node[8].content_store 	decision_ratio[8] 	0.68964047368491
scalar abilene_nodelay_network.node[9].core_layer 	interests[9] 	300990
scalar abilene_nodelay_network.node[9].core_layer 	repo_load[9] 	104852
scalar abilene_nodelay_network.node[9].core_layer 	data[9] 	129299
scalar abilene_nodelay_network.node[9].core_layer 	slots_sent[face$o[1]->client[9]] 	17895200
scalar abilene_nodelay_network.node[9].core_layer 	slots_sent[face$o[2]->node[10]] 	4824700
scalar abilene_nodelay_network.node[9].core_layer 	slots_sent[face$o[3]->node[8]] 	7379100
scalar abilene_nodelay_network.node[9].content_store 	p_hit[9] 	0.22206385594206
scalar abilene_nodelay_network.node[9].content_store 	hits[9] 	66839
scalar abilene_nodelay_network.node[9].content_store 	misses[9] 	234151
scalar abilene_nodelay_network.node[9].content_store 	decision_yes[9] 	129299
scalar abilene_nodelay_network.node[9].content_store 	decision_no[9] 	104852
scalar abilene_nodelay_network.node[9].content_store 	decision_ratio[9] 	0.55220349261801
scalar abilene_nodelay_network.node[10].core_layer 	interests[10] 	290246
scalar abilene_nodelay_network.node[10].core_layer 	repo_load[10] 	91709
scalar abilene_nodelay_network.node[10].core_layer 	data[10] 	115584
scalar abilene_nodelay_network.node[10].core_layer 	slots_sent[face$o[1]->client[10]] 	17962800
scalar abilene_nodelay_network.node[10].core_layer 	slots_sent[face$o[2]->node[0]] 	1660500
scalar abilene_nodelay_network.node[10].core_layer 	slots_sent[face$o[3]->node[1]] 	4746200
scalar abilene_nodelay_network.node[10].core_layer 	slots_sent[face$o[4]->node[9]] 	4655100
scalar abilene_nodelay_network.node[10].content_store 	p_hit[10] 	0.28580238831887
scalar abilene_nodelay_network.node[10].content_store 	hits[10] 	82953
scalar abilene_nodelay_network.node[10].content_store 	misses[10] 	207293
scalar abilene_nodelay_network.node[10].content_store 	decision_yes[10] 	115584
scalar abilene_nodelay_network.node[10].content_store 	decision_no[10] 	91709
scalar abilene_nodelay_network.node[10].content_store 	decision_ratio[10] 	0.55758756928599
scalar abilene_nodelay_network.client[0] 	hdistance[0].real 	1.7768800151358
scalar abilene_nodelay_network.client[0] 	downloads[0].real 	179706
scalar abilene_nodelay_network.client[0] 	avg_time[0].real 	0
scalar abilene_nodelay_network.client[1] 	hdistance[1].real 	1.5885742198341
scalar abilene_nodelay_network.client[1] 	downloads[1].real 	180154
scalar abilene_nodelay_network.client[1] 	avg_time[1].real 	0
scalar abilene_nodelay_network.client[2] 	hdistance[2].real 	1.4098740021695
scalar abilene_nodelay_network.client[2] 	downloads[2].real 	179765
scalar abilene_nodelay_network.client[2] 	avg_time[2].real 	0
scalar abilene_nodelay_network.client[3] 	hdistance[3].real 	1.4415508713103
scalar abilene_nodelay_network.client[3] 	downloads[3].real 	180131
scalar abilene_nodelay_network.client[3] 	avg_time[3].real 	0
scalar abilene_nodelay_network.client[4] 	hdistance[4].real 	1.6737067407922
scalar abilene_nodelay_network.client[4] 	downloads[4].real 	179875
scalar abilene_nodelay_network.client[4] 	avg_time[4].real 	0
scalar abilene_nodelay_network.client[5] 	hdistance[5].real 	1.7579455701984
scalar abilene_nodelay_network.client[5] 	downloads[5].real 	179534
scalar abilene_nodelay_network.client[5] 	avg_time[5].real 	0
scalar abilene_nodelay_network.client[6] 	hdistance[6].real 	1.6801998264314
scalar abilene_nodelay_network.client[6] 	downloads[6].real 	179756
scalar abilene_nodelay_network.client[6] 	avg_time[6].real 	0
scalar abilene_nodelay_network.client[7] 	hdistance[7].real 	1.4635369340219
scalar abilene_nodelay_network.client[7] 	downloads[7].real 	180484
scalar abilene_nodelay_network.client[7] 	avg_time[7].real 	0
scalar abilene_nodelay_network.client[8] 	hdistance[8].real 	1.4146319734065
scalar abilene_nodelay_network.client[8] 	downloads[8].real 	179593
scalar abilene_nodelay_network.client[8] 	avg_time[8].real 	0
scalar abilene_nodelay_network.client[9] 	hdistance[9].real 	1.6621775671688
scalar abilene_nodelay_network.client[9] 	downloads[9].real 	178952
scalar abilene_nodelay_network.client[9] 	avg_time[9].real 	0
scalar abilene_nodelay_network.client[10] 	hdistance[10].real 	1.639727659385
scalar abilene_nodelay_network.client[10] 	downloads[10].real 	179628
scalar abilene_nodelay_network.client[10] 	avg_time[10].real 	0
