version 2
run General-2-20150723-15:29:48-31253
attr C 4118
attr D lce
attr F spr
attr R lru
attr a 1
attr brates 1
attr configname General
attr ctlg 1e6
attr datetime 20150723-15:29:48
attr experiment General
attr inifile omnetpp.ini
attr iterationvars "$net=abilene_nodelay, $rep=2, $lambda=100, $a=1, $ctlg=1e6, $brates=1, $F=spr, $ttl=1000, $D=lce, $R=lru, $C=4118, $window=60, $variance=0.05, $mytime=1800"
attr iterationvars2 "$net=abilene_nodelay, $rep=2, $lambda=100, $a=1, $ctlg=1e6, $brates=1, $F=spr, $ttl=1000, $D=lce, $R=lru, $C=4118, $window=60, $variance=0.05, $mytime=1800, $repetition=0"
attr lambda 100
attr measurement "$net=abilene_nodelay, $rep=2, $lambda=100, $a=1, $ctlg=1e6, $brates=1, $F=spr, $ttl=1000, $D=lce, $R=lru, $C=4118, $window=60, $variance=0.05, $mytime=1800"
attr mytime 1800
attr net abilene_nodelay
attr network networks.${net=abilene_nodelay}_network
attr processid 31253
attr rep 2
attr repetition 0
attr replication #0
attr resultdir results
attr runnumber 2
attr seedset 2
attr ttl 1000
attr variance 0.05
attr window 60

scalar . 	C 	4118
scalar . 	a 	1
scalar . 	brates 	1
scalar . 	ctlg 	1e6
scalar . 	lambda 	100
scalar . 	mytime 	1800
scalar . 	rep 	2
scalar . 	ttl 	1000
scalar . 	variance 	0.05
scalar . 	window 	60
scalar abilene_nodelay_network.content_distribution 	repo-0 	4
scalar abilene_nodelay_network.content_distribution 	repo-1 	9
scalar abilene_nodelay_network.content_distribution 	repo-2 	6
scalar abilene_nodelay_network.content_distribution 	repo-3 	3
scalar abilene_nodelay_network.content_distribution 	repo-4 	7
scalar abilene_nodelay_network.content_distribution 	repo-5 	8
scalar abilene_nodelay_network.content_distribution 	repo-6 	10
scalar abilene_nodelay_network.content_distribution 	repo-7 	0
scalar abilene_nodelay_network.content_distribution 	repo-8 	5
scalar abilene_nodelay_network.content_distribution 	repo-9 	2
scalar abilene_nodelay_network.content_distribution 	repo-10 	1
scalar abilene_nodelay_network.content_distribution 	client-0 	0
scalar abilene_nodelay_network.content_distribution 	client-1 	6
scalar abilene_nodelay_network.content_distribution 	client-2 	7
scalar abilene_nodelay_network.content_distribution 	client-3 	10
scalar abilene_nodelay_network.content_distribution 	client-4 	9
scalar abilene_nodelay_network.content_distribution 	client-5 	3
scalar abilene_nodelay_network.content_distribution 	client-6 	5
scalar abilene_nodelay_network.content_distribution 	client-7 	4
scalar abilene_nodelay_network.content_distribution 	client-8 	1
scalar abilene_nodelay_network.content_distribution 	client-9 	2
scalar abilene_nodelay_network.content_distribution 	client-10 	8
scalar abilene_nodelay_network.content_distribution 	repo-0_card 	90921
scalar abilene_nodelay_network.content_distribution 	repo-0_price 	0
scalar abilene_nodelay_network.content_distribution 	repo-1_card 	90802
scalar abilene_nodelay_network.content_distribution 	repo-1_price 	0
scalar abilene_nodelay_network.content_distribution 	repo-2_card 	90824
scalar abilene_nodelay_network.content_distribution 	repo-2_price 	0
scalar abilene_nodelay_network.content_distribution 	repo-3_card 	90856
scalar abilene_nodelay_network.content_distribution 	repo-3_price 	0
scalar abilene_nodelay_network.content_distribution 	repo-4_card 	90677
scalar abilene_nodelay_network.content_distribution 	repo-4_price 	0
scalar abilene_nodelay_network.content_distribution 	repo-5_card 	90934
scalar abilene_nodelay_network.content_distribution 	repo-5_price 	0
scalar abilene_nodelay_network.content_distribution 	repo-6_card 	90976
scalar abilene_nodelay_network.content_distribution 	repo-6_price 	0
scalar abilene_nodelay_network.content_distribution 	repo-7_card 	91202
scalar abilene_nodelay_network.content_distribution 	repo-7_price 	0
scalar abilene_nodelay_network.content_distribution 	repo-8_card 	91092
scalar abilene_nodelay_network.content_distribution 	repo-8_price 	0
scalar abilene_nodelay_network.content_distribution 	repo-9_card 	90956
scalar abilene_nodelay_network.content_distribution 	repo-9_price 	0
scalar abilene_nodelay_network.content_distribution 	repo-10_card 	90760
scalar abilene_nodelay_network.content_distribution 	repo-10_price 	0
scalar abilene_nodelay_network.statistics 	stabilization_time 	141.9
scalar abilene_nodelay_network.statistics 	p_hit 	0.23397291878622
scalar abilene_nodelay_network.statistics 	interests 	374489.72727273
scalar abilene_nodelay_network.statistics 	data 	194562
scalar abilene_nodelay_network.statistics 	hdistance 	1.5944444516113
scalar abilene_nodelay_network.statistics 	avg_time 	0
scalar abilene_nodelay_network.statistics 	downloads 	1979205
scalar abilene_nodelay_network.statistics 	total_cost 	0
scalar abilene_nodelay_network.statistics 	total_replicas 	1000000
scalar abilene_nodelay_network.statistics 	"representations_downloaded 1:" 	0
scalar abilene_nodelay_network.statistics 	"slots_per_representation 100:" 	0
scalar abilene_nodelay_network.statistics 	inner_hit 	0.48697583120495
scalar abilene_nodelay_network.statistics 	execution_time 	85
scalar abilene_nodelay_network.node[0].core_layer 	interests[0] 	252579
scalar abilene_nodelay_network.node[0].core_layer 	repo_load[0] 	91387
scalar abilene_nodelay_network.node[0].core_layer 	data[0] 	83856
scalar abilene_nodelay_network.node[0].core_layer 	slots_sent[face$o[1]->client[0]] 	17934000
scalar abilene_nodelay_network.node[0].core_layer 	slots_sent[face$o[2]->node[1]] 	5733400
scalar abilene_nodelay_network.node[0].core_layer 	slots_sent[face$o[3]->node[10]] 	1590500
scalar abilene_nodelay_network.node[0].content_store 	p_hit[0] 	0.30618539150127
scalar abilene_nodelay_network.node[0].content_store 	hits[0] 	77336
scalar abilene_nodelay_network.node[0].content_store 	misses[0] 	175243
scalar abilene_nodelay_network.node[0].content_store 	decision_yes[0] 	83856
scalar abilene_nodelay_network.node[0].content_store 	decision_no[0] 	91387
scalar abilene_nodelay_network.node[0].content_store 	decision_ratio[0] 	0.47851269380232
scalar abilene_nodelay_network.node[1].core_layer 	interests[1] 	439544
scalar abilene_nodelay_network.node[1].core_layer 	repo_load[1] 	110539
scalar abilene_nodelay_network.node[1].core_layer 	data[1] 	254064
scalar abilene_nodelay_network.node[1].core_layer 	slots_sent[face$o[1]->client[1]] 	18097300
scalar abilene_nodelay_network.node[1].core_layer 	slots_sent[face$o[2]->node[0]] 	6704700
scalar abilene_nodelay_network.node[1].core_layer 	slots_sent[face$o[3]->node[10]] 	5089800
scalar abilene_nodelay_network.node[1].core_layer 	slots_sent[face$o[4]->node[2]] 	14062600
scalar abilene_nodelay_network.node[1].content_store 	p_hit[1] 	0.17049715159347
scalar abilene_nodelay_network.node[1].content_store 	hits[1] 	74941
scalar abilene_nodelay_network.node[1].content_store 	misses[1] 	364603
scalar abilene_nodelay_network.node[1].content_store 	decision_yes[1] 	254064
scalar abilene_nodelay_network.node[1].content_store 	decision_no[1] 	110539
scalar abilene_nodelay_network.node[1].content_store 	decision_ratio[1] 	0.69682366848325
scalar abilene_nodelay_network.node[2].core_layer 	interests[2] 	577793
scalar abilene_nodelay_network.node[2].core_layer 	repo_load[2] 	92848
scalar abilene_nodelay_network.node[2].core_layer 	data[2] 	382775
scalar abilene_nodelay_network.node[2].core_layer 	slots_sent[face$o[1]->client[2]] 	17975300
scalar abilene_nodelay_network.node[2].core_layer 	slots_sent[face$o[2]->node[1]] 	14854600
scalar abilene_nodelay_network.node[2].core_layer 	slots_sent[face$o[3]->node[3]] 	17974800
scalar abilene_nodelay_network.node[2].core_layer 	slots_sent[face$o[4]->node[8]] 	6974600
scalar abilene_nodelay_network.node[2].content_store 	p_hit[2] 	0.17682803356912
scalar abilene_nodelay_network.node[2].content_store 	hits[2] 	102170
scalar abilene_nodelay_network.node[2].content_store 	misses[2] 	475623
scalar abilene_nodelay_network.node[2].content_store 	decision_yes[2] 	382775
scalar abilene_nodelay_network.node[2].content_store 	decision_no[2] 	92848
scalar abilene_nodelay_network.node[2].content_store 	decision_ratio[2] 	0.8047865641485
scalar abilene_nodelay_network.node[3].core_layer 	interests[3] 	543080
scalar abilene_nodelay_network.node[3].core_layer 	repo_load[3] 	89986
scalar abilene_nodelay_network.node[3].core_layer 	data[3] 	351716
scalar abilene_nodelay_network.node[3].core_layer 	slots_sent[face$o[1]->client[3]] 	18013400
scalar abilene_nodelay_network.node[3].core_layer 	slots_sent[face$o[2]->node[2]] 	17569600
scalar abilene_nodelay_network.node[3].core_layer 	slots_sent[face$o[3]->node[4]] 	10945300
scalar abilene_nodelay_network.node[3].core_layer 	slots_sent[face$o[4]->node[7]] 	7779700
scalar abilene_nodelay_network.node[3].content_store 	p_hit[3] 	0.18667231347131
scalar abilene_nodelay_network.node[3].content_store 	hits[3] 	101378
scalar abilene_nodelay_network.node[3].content_store 	misses[3] 	441702
scalar abilene_nodelay_network.node[3].content_store 	decision_yes[3] 	351716
scalar abilene_nodelay_network.node[3].content_store 	decision_no[3] 	89986
scalar abilene_nodelay_network.node[3].content_store 	decision_ratio[3] 	0.79627441125465
scalar abilene_nodelay_network.node[4].core_layer 	interests[4] 	339458
scalar abilene_nodelay_network.node[4].core_layer 	repo_load[4] 	89596
scalar abilene_nodelay_network.node[4].core_layer 	data[4] 	160962
scalar abilene_nodelay_network.node[4].core_layer 	slots_sent[face$o[1]->client[4]] 	17995900
scalar abilene_nodelay_network.node[4].core_layer 	slots_sent[face$o[2]->node[3]] 	10025600
scalar abilene_nodelay_network.node[4].core_layer 	slots_sent[face$o[3]->node[5]] 	5924300
scalar abilene_nodelay_network.node[4].content_store 	p_hit[4] 	0.26188806862705
scalar abilene_nodelay_network.node[4].content_store 	hits[4] 	88900
scalar abilene_nodelay_network.node[4].content_store 	misses[4] 	250558
scalar abilene_nodelay_network.node[4].content_store 	decision_yes[4] 	160962
scalar abilene_nodelay_network.node[4].content_store 	decision_no[4] 	89596
scalar abilene_nodelay_network.node[4].content_store 	decision_ratio[4] 	0.64241413165814
scalar abilene_nodelay_network.node[5].core_layer 	interests[5] 	270122
scalar abilene_nodelay_network.node[5].core_layer 	repo_load[5] 	85093
scalar abilene_nodelay_network.node[5].core_layer 	data[5] 	100286
scalar abilene_nodelay_network.node[5].core_layer 	slots_sent[face$o[1]->client[5]] 	17996000
scalar abilene_nodelay_network.node[5].core_layer 	slots_sent[face$o[2]->node[4]] 	5150900
scalar abilene_nodelay_network.node[5].core_layer 	slots_sent[face$o[3]->node[6]] 	3865300
scalar abilene_nodelay_network.node[5].content_store 	p_hit[5] 	0.31372120745441
scalar abilene_nodelay_network.node[5].content_store 	hits[5] 	84743
scalar abilene_nodelay_network.node[5].content_store 	misses[5] 	185379
scalar abilene_nodelay_network.node[5].content_store 	decision_yes[5] 	100286
scalar abilene_nodelay_network.node[5].content_store 	decision_no[5] 	85093
scalar abilene_nodelay_network.node[5].content_store 	decision_ratio[5] 	0.54097821220311
scalar abilene_nodelay_network.node[6].core_layer 	interests[6] 	300551
scalar abilene_nodelay_network.node[6].core_layer 	repo_load[6] 	85479
scalar abilene_nodelay_network.node[6].core_layer 	data[6] 	130449
scalar abilene_nodelay_network.node[6].core_layer 	slots_sent[face$o[1]->client[6]] 	17955900
scalar abilene_nodelay_network.node[6].core_layer 	slots_sent[face$o[2]->node[5]] 	4104300
scalar abilene_nodelay_network.node[6].core_layer 	slots_sent[face$o[3]->node[7]] 	7994900
scalar abilene_nodelay_network.node[6].content_store 	p_hit[6] 	0.28155953565285
scalar abilene_nodelay_network.node[6].content_store 	hits[6] 	84623
scalar abilene_nodelay_network.node[6].content_store 	misses[6] 	215928
scalar abilene_nodelay_network.node[6].content_store 	decision_yes[6] 	130449
scalar abilene_nodelay_network.node[6].content_store 	decision_no[6] 	85479
scalar abilene_nodelay_network.node[6].content_store 	decision_ratio[6] 	0.60413193286651
scalar abilene_nodelay_network.node[7].core_layer 	interests[7] 	407813
scalar abilene_nodelay_network.node[7].core_layer 	repo_load[7] 	91545
scalar abilene_nodelay_network.node[7].core_layer 	data[7] 	222800
scalar abilene_nodelay_network.node[7].core_layer 	slots_sent[face$o[1]->client[7]] 	18045700
scalar abilene_nodelay_network.node[7].core_layer 	slots_sent[face$o[2]->node[3]] 	7171200
scalar abilene_nodelay_network.node[7].core_layer 	slots_sent[face$o[3]->node[6]] 	9179600
scalar abilene_nodelay_network.node[7].core_layer 	slots_sent[face$o[4]->node[8]] 	6384800
scalar abilene_nodelay_network.node[7].content_store 	p_hit[7] 	0.22919328221513
scalar abilene_nodelay_network.node[7].content_store 	hits[7] 	93468
scalar abilene_nodelay_network.node[7].content_store 	misses[7] 	314345
scalar abilene_nodelay_network.node[7].content_store 	decision_yes[7] 	222800
scalar abilene_nodelay_network.node[7].content_store 	decision_no[7] 	91545
scalar abilene_nodelay_network.node[7].content_store 	decision_ratio[7] 	0.70877539009687
scalar abilene_nodelay_network.node[8].core_layer 	interests[8] 	395214
scalar abilene_nodelay_network.node[8].core_layer 	repo_load[8] 	96761
scalar abilene_nodelay_network.node[8].core_layer 	data[8] 	207443
scalar abilene_nodelay_network.node[8].core_layer 	slots_sent[face$o[1]->client[8]] 	18033200
scalar abilene_nodelay_network.node[8].core_layer 	slots_sent[face$o[2]->node[2]] 	6645300
scalar abilene_nodelay_network.node[8].core_layer 	slots_sent[face$o[3]->node[7]] 	6505400
scalar abilene_nodelay_network.node[8].core_layer 	slots_sent[face$o[4]->node[9]] 	8337500
scalar abilene_nodelay_network.node[8].content_store 	p_hit[8] 	0.23028030383539
scalar abilene_nodelay_network.node[8].content_store 	hits[8] 	91010
scalar abilene_nodelay_network.node[8].content_store 	misses[8] 	304204
scalar abilene_nodelay_network.node[8].content_store 	decision_yes[8] 	207443
scalar abilene_nodelay_network.node[8].content_store 	decision_no[8] 	96761
scalar abilene_nodelay_network.node[8].content_store 	decision_ratio[8] 	0.68192068480362
scalar abilene_nodelay_network.node[9].core_layer 	interests[9] 	301061
scalar abilene_nodelay_network.node[9].core_layer 	repo_load[9] 	84274
scalar abilene_nodelay_network.node[9].core_layer 	data[9] 	130794
scalar abilene_nodelay_network.node[9].core_layer 	slots_sent[face$o[1]->client[9]] 	17897800
scalar abilene_nodelay_network.node[9].core_layer 	slots_sent[face$o[2]->node[10]] 	4823400
scalar abilene_nodelay_network.node[9].core_layer 	slots_sent[face$o[3]->node[8]] 	7384900
scalar abilene_nodelay_network.node[9].content_store 	p_hit[9] 	0.28563314411365
scalar abilene_nodelay_network.node[9].content_store 	hits[9] 	85993
scalar abilene_nodelay_network.node[9].content_store 	misses[9] 	215068
scalar abilene_nodelay_network.node[9].content_store 	decision_yes[9] 	130794
scalar abilene_nodelay_network.node[9].content_store 	decision_no[9] 	84274
scalar abilene_nodelay_network.node[9].content_store 	decision_ratio[9] 	0.60815184034817
scalar abilene_nodelay_network.node[10].core_layer 	interests[10] 	292172
scalar abilene_nodelay_network.node[10].core_layer 	repo_load[10] 	97872
scalar abilene_nodelay_network.node[10].core_layer 	data[10] 	115037
scalar abilene_nodelay_network.node[10].core_layer 	slots_sent[face$o[1]->client[10]] 	17976000
scalar abilene_nodelay_network.node[10].core_layer 	slots_sent[face$o[2]->node[0]] 	1680900
scalar abilene_nodelay_network.node[10].core_layer 	slots_sent[face$o[3]->node[1]] 	4818400
scalar abilene_nodelay_network.node[10].core_layer 	slots_sent[face$o[4]->node[9]] 	4741900
scalar abilene_nodelay_network.node[10].content_store 	p_hit[10] 	0.27128882986734
scalar abilene_nodelay_network.node[10].content_store 	hits[10] 	79263
scalar abilene_nodelay_network.node[10].content_store 	misses[10] 	212909
scalar abilene_nodelay_network.node[10].content_store 	decision_yes[10] 	115037
scalar abilene_nodelay_network.node[10].content_store 	decision_no[10] 	97872
scalar abilene_nodelay_network.node[10].content_store 	decision_ratio[10] 	0.54031064915058
scalar abilene_nodelay_network.client[0] 	hdistance[0].real 	1.7858982937437
scalar abilene_nodelay_network.client[0] 	downloads[0].real 	179340
scalar abilene_nodelay_network.client[0] 	avg_time[0].real 	0
scalar abilene_nodelay_network.client[1] 	hdistance[1].real 	1.6742884297658
scalar abilene_nodelay_network.client[1] 	downloads[1].real 	180973
scalar abilene_nodelay_network.client[1] 	avg_time[1].real 	0
scalar abilene_nodelay_network.client[2] 	hdistance[2].real 	1.4086218310682
scalar abilene_nodelay_network.client[2] 	downloads[2].real 	179753
scalar abilene_nodelay_network.client[2] 	avg_time[2].real 	0
scalar abilene_nodelay_network.client[3] 	hdistance[3].real 	1.4472781373866
scalar abilene_nodelay_network.client[3] 	downloads[3].real 	180134
scalar abilene_nodelay_network.client[3] 	avg_time[3].real 	0
scalar abilene_nodelay_network.client[4] 	hdistance[4].real 	1.6565384337543
scalar abilene_nodelay_network.client[4] 	downloads[4].real 	179959
scalar abilene_nodelay_network.client[4] 	avg_time[4].real 	0
scalar abilene_nodelay_network.client[5] 	hdistance[5].real 	1.7614469882196
scalar abilene_nodelay_network.client[5] 	downloads[5].real 	179960
scalar abilene_nodelay_network.client[5] 	avg_time[5].real 	0
scalar abilene_nodelay_network.client[6] 	hdistance[6].real 	1.6827226705428
scalar abilene_nodelay_network.client[6] 	downloads[6].real 	179559
scalar abilene_nodelay_network.client[6] 	avg_time[6].real 	0
scalar abilene_nodelay_network.client[7] 	hdistance[7].real 	1.4666208570463
scalar abilene_nodelay_network.client[7] 	downloads[7].real 	180457
scalar abilene_nodelay_network.client[7] 	avg_time[7].real 	0
scalar abilene_nodelay_network.client[8] 	hdistance[8].real 	1.4245391832842
scalar abilene_nodelay_network.client[8] 	downloads[8].real 	180332
scalar abilene_nodelay_network.client[8] 	avg_time[8].real 	0
scalar abilene_nodelay_network.client[9] 	hdistance[9].real 	1.5623037468292
scalar abilene_nodelay_network.client[9] 	downloads[9].real 	178978
scalar abilene_nodelay_network.client[9] 	avg_time[9].real 	0
scalar abilene_nodelay_network.client[10] 	hdistance[10].real 	1.6686303960837
scalar abilene_nodelay_network.client[10] 	downloads[10].real 	179760
scalar abilene_nodelay_network.client[10] 	avg_time[10].real 	0
