version 2
run General-18-20141007-11:30:18-15362
attr D fix0.005
attr F nrr
attr R lru
attr a 1
attr configname General
attr csize 1e3
attr ctlg 1e5
attr datetime 20141007-11:30:18
attr experiment General
attr inifile omnetpp.ini
attr iterationvars "$net=abilene_cost, $rep=2, $priceratiovalue=10, $weights=0.333_0.333_0.334, $lambda=100, $a=1, $ctlg=1e5, $F=nrr, $ttl=10, $D=fix0.005, $xi=1, $R=lru, $csize=1e3, $pricebits=0, $window=60, $variance=0.05, $mytime=1800"
attr iterationvars2 "$net=abilene_cost, $rep=2, $priceratiovalue=10, $weights=0.333_0.333_0.334, $lambda=100, $a=1, $ctlg=1e5, $F=nrr, $ttl=10, $D=fix0.005, $xi=1, $R=lru, $csize=1e3, $pricebits=0, $window=60, $variance=0.05, $mytime=1800, $repetition=0"
attr lambda 100
attr measurement "$net=abilene_cost, $rep=2, $priceratiovalue=10, $weights=0.333_0.333_0.334, $lambda=100, $a=1, $ctlg=1e5, $F=nrr, $ttl=10, $D=fix0.005, $xi=1, $R=lru, $csize=1e3, $pricebits=0, $window=60, $variance=0.05, $mytime=1800"
attr mytime 1800
attr net abilene_cost
attr network networks.${net=abilene_cost,geant_cost}_network
attr pricebits 0
attr priceratiovalue 10
attr processid 15362
attr rep 2
attr repetition 0
attr replication #0
attr resultdir results
attr runnumber 18
attr seedset 2
attr ttl 10
attr variance 0.05
attr weights 0.333_0.333_0.334
attr window 60
attr xi 1

scalar . 	a 	1
scalar . 	csize 	1e3
scalar . 	ctlg 	1e5
scalar . 	lambda 	100
scalar . 	mytime 	1800
scalar . 	pricebits 	0
scalar . 	priceratiovalue 	10
scalar . 	rep 	2
scalar . 	ttl 	10
scalar . 	variance 	0.05
scalar . 	window 	60
scalar . 	xi 	1
scalar abilene_cost_network.content_distribution 	repo-0 	4
scalar abilene_cost_network.content_distribution 	repo-1 	9
scalar abilene_cost_network.content_distribution 	repo-2 	6
scalar abilene_cost_network.content_distribution 	client-0 	3
scalar abilene_cost_network.content_distribution 	client-1 	7
scalar abilene_cost_network.content_distribution 	client-2 	9
scalar abilene_cost_network.content_distribution 	repo-0_card 	33329
scalar abilene_cost_network.content_distribution 	repo-0_price 	1
scalar abilene_cost_network.content_distribution 	repo-1_card 	33052
scalar abilene_cost_network.content_distribution 	repo-1_price 	10
scalar abilene_cost_network.content_distribution 	repo-2_card 	33619
scalar abilene_cost_network.content_distribution 	repo-2_price 	0
scalar abilene_cost_network.statistics 	repo_popularity[0] 	0.33984204835506
scalar abilene_cost_network.statistics 	repo_popularity[1] 	0.39407385110283
scalar abilene_cost_network.statistics 	repo_popularity[2] 	0.26608410054213
scalar abilene_cost_network.statistics 	stabilization_time 	36060
scalar abilene_cost_network.statistics 	p_hit 	0.23787676519687
scalar abilene_cost_network.statistics 	interests 	104939.36363636
scalar abilene_cost_network.statistics 	data 	55856.090909091
scalar abilene_cost_network.statistics 	hdistance 	1.6296815935641
scalar abilene_cost_network.statistics 	avg_time 	0.008250647451
scalar abilene_cost_network.statistics 	downloads 	539855
scalar abilene_cost_network.statistics 	total_cost 	1065736
scalar abilene_cost_network.statistics 	total_replicas 	100000
scalar abilene_cost_network.statistics 	inner_hit 	0.50867177297608
scalar abilene_cost_network.node[0].core_layer 	interests[0] 	0
scalar abilene_cost_network.node[0].core_layer 	data[0] 	0
scalar abilene_cost_network.node[0].core_layer 	repo_int[0] 	265246
scalar abilene_cost_network.node[0].content_store 	p_hit[0] 	-nan
scalar abilene_cost_network.node[0].content_store 	hits[0] 	0
scalar abilene_cost_network.node[0].content_store 	misses[0] 	0
scalar abilene_cost_network.node[0].content_store 	decision_yes[0] 	0
scalar abilene_cost_network.node[0].content_store 	decision_no[0] 	0
scalar abilene_cost_network.node[0].content_store 	decision_ratio[0] 	0
scalar abilene_cost_network.node[1].core_layer 	interests[1] 	0
scalar abilene_cost_network.node[1].core_layer 	data[1] 	0
scalar abilene_cost_network.node[1].content_store 	p_hit[1] 	-nan
scalar abilene_cost_network.node[1].content_store 	hits[1] 	0
scalar abilene_cost_network.node[1].content_store 	misses[1] 	0
scalar abilene_cost_network.node[1].content_store 	decision_yes[1] 	0
scalar abilene_cost_network.node[1].content_store 	decision_no[1] 	0
scalar abilene_cost_network.node[1].content_store 	decision_ratio[1] 	0
scalar abilene_cost_network.node[2].core_layer 	interests[2] 	78706
scalar abilene_cost_network.node[2].core_layer 	data[2] 	67041
scalar abilene_cost_network.node[2].content_store 	p_hit[2] 	0.14819708789673
scalar abilene_cost_network.node[2].content_store 	hits[2] 	11664
scalar abilene_cost_network.node[2].content_store 	misses[2] 	67042
scalar abilene_cost_network.node[2].content_store 	decision_yes[2] 	342
scalar abilene_cost_network.node[2].content_store 	decision_no[2] 	66699
scalar abilene_cost_network.node[2].content_store 	decision_ratio[2] 	0.0051013558866962
scalar abilene_cost_network.node[3].core_layer 	interests[3] 	250653
scalar abilene_cost_network.node[3].core_layer 	data[3] 	173511
scalar abilene_cost_network.node[3].content_store 	p_hit[3] 	0.30767634937543
scalar abilene_cost_network.node[3].content_store 	hits[3] 	77120
scalar abilene_cost_network.node[3].content_store 	misses[3] 	173533
scalar abilene_cost_network.node[3].content_store 	decision_yes[3] 	871
scalar abilene_cost_network.node[3].content_store 	decision_no[3] 	172640
scalar abilene_cost_network.node[3].content_store 	decision_ratio[3] 	0.0050198546489848
scalar abilene_cost_network.node[4].core_layer 	interests[4] 	89710
scalar abilene_cost_network.node[4].core_layer 	repo_load[4] 	82846
scalar abilene_cost_network.node[4].core_layer 	data[4] 	0
scalar abilene_cost_network.node[4].content_store 	p_hit[4] 	0.07651320922974
scalar abilene_cost_network.node[4].content_store 	hits[4] 	6864
scalar abilene_cost_network.node[4].content_store 	misses[4] 	82846
scalar abilene_cost_network.node[4].content_store 	decision_yes[4] 	417
scalar abilene_cost_network.node[4].content_store 	decision_no[4] 	82429
scalar abilene_cost_network.node[4].content_store 	decision_ratio[4] 	0.0050334355309852
scalar abilene_cost_network.node[5].core_layer 	interests[5] 	0
scalar abilene_cost_network.node[5].core_layer 	data[5] 	0
scalar abilene_cost_network.node[5].content_store 	p_hit[5] 	-nan
scalar abilene_cost_network.node[5].content_store 	hits[5] 	0
scalar abilene_cost_network.node[5].content_store 	misses[5] 	0
scalar abilene_cost_network.node[5].content_store 	decision_yes[5] 	0
scalar abilene_cost_network.node[5].content_store 	decision_no[5] 	0
scalar abilene_cost_network.node[5].content_store 	decision_ratio[5] 	0
scalar abilene_cost_network.node[6].core_layer 	interests[6] 	93274
scalar abilene_cost_network.node[6].core_layer 	repo_load[6] 	84111
scalar abilene_cost_network.node[6].core_layer 	data[6] 	0
scalar abilene_cost_network.node[6].content_store 	p_hit[6] 	0.098237450950962
scalar abilene_cost_network.node[6].content_store 	hits[6] 	9163
scalar abilene_cost_network.node[6].content_store 	misses[6] 	84111
scalar abilene_cost_network.node[6].content_store 	decision_yes[6] 	417
scalar abilene_cost_network.node[6].content_store 	decision_no[6] 	83694
scalar abilene_cost_network.node[6].content_store 	decision_ratio[6] 	0.0049577344223704
scalar abilene_cost_network.node[7].core_layer 	interests[7] 	251668
scalar abilene_cost_network.node[7].core_layer 	data[7] 	171873
scalar abilene_cost_network.node[7].content_store 	p_hit[7] 	0.31694534068694
scalar abilene_cost_network.node[7].content_store 	hits[7] 	79765
scalar abilene_cost_network.node[7].content_store 	misses[7] 	171903
scalar abilene_cost_network.node[7].content_store 	decision_yes[7] 	852
scalar abilene_cost_network.node[7].content_store 	decision_no[7] 	171021
scalar abilene_cost_network.node[7].content_store 	decision_ratio[7] 	0.0049571485922745
scalar abilene_cost_network.node[8].core_layer 	interests[8] 	147143
scalar abilene_cost_network.node[8].core_layer 	data[8] 	129639
scalar abilene_cost_network.node[8].content_store 	p_hit[8] 	0.11889114670762
scalar abilene_cost_network.node[8].content_store 	hits[8] 	17494
scalar abilene_cost_network.node[8].content_store 	misses[8] 	129649
scalar abilene_cost_network.node[8].content_store 	decision_yes[8] 	637
scalar abilene_cost_network.node[8].content_store 	decision_no[8] 	129002
scalar abilene_cost_network.node[8].content_store 	decision_ratio[8] 	0.0049136448136749
scalar abilene_cost_network.node[9].core_layer 	interests[9] 	243179
scalar abilene_cost_network.node[9].core_layer 	repo_load[9] 	98289
scalar abilene_cost_network.node[9].core_layer 	data[9] 	72353
scalar abilene_cost_network.node[9].content_store 	p_hit[9] 	0.29821242788234
scalar abilene_cost_network.node[9].content_store 	hits[9] 	72519
scalar abilene_cost_network.node[9].content_store 	misses[9] 	170660
scalar abilene_cost_network.node[9].content_store 	decision_yes[9] 	839
scalar abilene_cost_network.node[9].content_store 	decision_no[9] 	169803
scalar abilene_cost_network.node[9].content_store 	decision_ratio[9] 	0.0049167262455902
scalar abilene_cost_network.node[10].core_layer 	interests[10] 	0
scalar abilene_cost_network.node[10].core_layer 	data[10] 	0
scalar abilene_cost_network.node[10].content_store 	p_hit[10] 	-nan
scalar abilene_cost_network.node[10].content_store 	hits[10] 	0
scalar abilene_cost_network.node[10].content_store 	misses[10] 	0
scalar abilene_cost_network.node[10].content_store 	decision_yes[10] 	0
scalar abilene_cost_network.node[10].content_store 	decision_no[10] 	0
scalar abilene_cost_network.node[10].content_store 	decision_ratio[10] 	0
scalar abilene_cost_network.client[3] 	hdistance[3] 	1.6398865311344
scalar abilene_cost_network.client[3] 	downloads[3] 	179785
scalar abilene_cost_network.client[3] 	avg_time[3] 	0.007402774075
scalar abilene_cost_network.client[7] 	hdistance[7] 	1.4503497124094
scalar abilene_cost_network.client[7] 	downloads[7] 	180291
scalar abilene_cost_network.client[7] 	avg_time[7] 	0.006628897633
scalar abilene_cost_network.client[9] 	hdistance[9] 	1.7988085371484
scalar abilene_cost_network.client[9] 	downloads[9] 	179779
scalar abilene_cost_network.client[9] 	avg_time[9] 	0.010720270645
