version 2
run General-10-20150720-19:05:07-13286
attr C 1e4
attr D lce
attr F spr
attr R lru_repr
attr a 1
attr brates 0.3_0.7_1.5_2.5_3.5
attr configname General
attr ctlg 1e6
attr datetime 20150720-19:05:07
attr experiment General
attr inifile omnetpp.ini
attr iterationvars "$net=abilene_nodelay, $rep=5, $lambda=100, $a=1, $ctlg=1e6, $brates=0.3_0.7_1.5_2.5_3.5, $F=spr, $ttl=1000, $D=lce, $R=lru_repr, $C=1e4, $window=60, $variance=0.05, $mytime=1800"
attr iterationvars2 "$net=abilene_nodelay, $rep=5, $lambda=100, $a=1, $ctlg=1e6, $brates=0.3_0.7_1.5_2.5_3.5, $F=spr, $ttl=1000, $D=lce, $R=lru_repr, $C=1e4, $window=60, $variance=0.05, $mytime=1800, $repetition=0"
attr lambda 100
attr measurement "$net=abilene_nodelay, $rep=5, $lambda=100, $a=1, $ctlg=1e6, $brates=0.3_0.7_1.5_2.5_3.5, $F=spr, $ttl=1000, $D=lce, $R=lru_repr, $C=1e4, $window=60, $variance=0.05, $mytime=1800"
attr mytime 1800
attr net abilene_nodelay
attr network networks.${net=abilene_nodelay}_network
attr processid 13286
attr rep 5
attr repetition 0
attr replication #0
attr resultdir results
attr runnumber 10
attr seedset 5
attr ttl 1000
attr variance 0.05
attr window 60

scalar . 	C 	1e4
scalar . 	a 	1
scalar . 	ctlg 	1e6
scalar . 	lambda 	100
scalar . 	mytime 	1800
scalar . 	rep 	5
scalar . 	ttl 	1000
scalar . 	variance 	0.05
scalar . 	window 	60
scalar abilene_nodelay_network.content_distribution 	repo-0 	9
scalar abilene_nodelay_network.content_distribution 	repo-1 	5
scalar abilene_nodelay_network.content_distribution 	repo-2 	1
scalar abilene_nodelay_network.content_distribution 	repo-3 	4
scalar abilene_nodelay_network.content_distribution 	repo-4 	0
scalar abilene_nodelay_network.content_distribution 	repo-5 	8
scalar abilene_nodelay_network.content_distribution 	repo-6 	10
scalar abilene_nodelay_network.content_distribution 	repo-7 	2
scalar abilene_nodelay_network.content_distribution 	repo-8 	3
scalar abilene_nodelay_network.content_distribution 	repo-9 	6
scalar abilene_nodelay_network.content_distribution 	repo-10 	7
scalar abilene_nodelay_network.content_distribution 	client-0 	5
scalar abilene_nodelay_network.content_distribution 	client-1 	8
scalar abilene_nodelay_network.content_distribution 	client-2 	0
scalar abilene_nodelay_network.content_distribution 	client-3 	6
scalar abilene_nodelay_network.content_distribution 	client-4 	2
scalar abilene_nodelay_network.content_distribution 	client-5 	4
scalar abilene_nodelay_network.content_distribution 	client-6 	9
scalar abilene_nodelay_network.content_distribution 	client-7 	1
scalar abilene_nodelay_network.content_distribution 	client-8 	7
scalar abilene_nodelay_network.content_distribution 	client-9 	3
scalar abilene_nodelay_network.content_distribution 	client-10 	10
scalar abilene_nodelay_network.content_distribution 	repo-0_card 	90460
scalar abilene_nodelay_network.content_distribution 	repo-0_price 	0
scalar abilene_nodelay_network.content_distribution 	repo-1_card 	90836
scalar abilene_nodelay_network.content_distribution 	repo-1_price 	0
scalar abilene_nodelay_network.content_distribution 	repo-2_card 	91160
scalar abilene_nodelay_network.content_distribution 	repo-2_price 	0
scalar abilene_nodelay_network.content_distribution 	repo-3_card 	90738
scalar abilene_nodelay_network.content_distribution 	repo-3_price 	0
scalar abilene_nodelay_network.content_distribution 	repo-4_card 	90919
scalar abilene_nodelay_network.content_distribution 	repo-4_price 	0
scalar abilene_nodelay_network.content_distribution 	repo-5_card 	91232
scalar abilene_nodelay_network.content_distribution 	repo-5_price 	0
scalar abilene_nodelay_network.content_distribution 	repo-6_card 	90910
scalar abilene_nodelay_network.content_distribution 	repo-6_price 	0
scalar abilene_nodelay_network.content_distribution 	repo-7_card 	90622
scalar abilene_nodelay_network.content_distribution 	repo-7_price 	0
scalar abilene_nodelay_network.content_distribution 	repo-8_card 	91128
scalar abilene_nodelay_network.content_distribution 	repo-8_price 	0
scalar abilene_nodelay_network.content_distribution 	repo-9_card 	90767
scalar abilene_nodelay_network.content_distribution 	repo-9_price 	0
scalar abilene_nodelay_network.content_distribution 	repo-10_card 	91228
scalar abilene_nodelay_network.content_distribution 	repo-10_price 	0
scalar abilene_nodelay_network.statistics 	stabilization_time 	36060
scalar abilene_nodelay_network.statistics 	p_hit 	0.35834022293106
scalar abilene_nodelay_network.statistics 	interests 	367484.18181818
scalar abilene_nodelay_network.statistics 	data 	155546
scalar abilene_nodelay_network.statistics 	hdistance 	0.9360403553316
scalar abilene_nodelay_network.statistics 	avg_time 	0
scalar abilene_nodelay_network.statistics 	downloads 	1978887
scalar abilene_nodelay_network.statistics 	total_cost 	0
scalar abilene_nodelay_network.statistics 	total_replicas 	1000000
scalar abilene_nodelay_network.statistics 	"representations_downloaded 0.389035:0.033012:0.023445:0.0198228:0.534685:" 	0
scalar abilene_nodelay_network.statistics 	"slots_per_representation 100:233:500:833:1167:" 	0
scalar abilene_nodelay_network.statistics 	inner_hit 	0.55389468928746
scalar abilene_nodelay_network.statistics 	execution_time 	1560
scalar abilene_nodelay_network.node[0].core_layer 	interests[0] 	255302
scalar abilene_nodelay_network.node[0].core_layer 	repo_load[0] 	72835
scalar abilene_nodelay_network.node[0].core_layer 	data[0] 	66655
scalar abilene_nodelay_network.node[0].core_layer 	slots_sent[face$o[1]->client[0]] 	131833280
scalar abilene_nodelay_network.node[0].core_layer 	slots_sent[face$o[2]->node[1]] 	12173681
scalar abilene_nodelay_network.node[0].core_layer 	slots_sent[face$o[3]->node[10]] 	3425941
scalar abilene_nodelay_network.node[0].content_store 	p_hit[0] 	0.45362746864498
scalar abilene_nodelay_network.node[0].content_store 	hits[0] 	115812
scalar abilene_nodelay_network.node[0].content_store 	misses[0] 	139490
scalar abilene_nodelay_network.node[0].content_store 	decision_yes[0] 	66655
scalar abilene_nodelay_network.node[0].content_store 	decision_no[0] 	72835
scalar abilene_nodelay_network.node[0].content_store 	decision_ratio[0] 	0.4778478743996
scalar abilene_nodelay_network.node[0].content_store 	"representation_breakdown[0] 30731:4496:1933:1255:4745:" 	0
scalar abilene_nodelay_network.node[0].proactive_component 	hdistance[0].proactive_component 	2.5709426976022
scalar abilene_nodelay_network.node[0].proactive_component 	downloads[0].proactive_component 	334890
scalar abilene_nodelay_network.node[0].proactive_component 	avg_time[0].proactive_component 	0
scalar abilene_nodelay_network.node[1].core_layer 	interests[1] 	424059
scalar abilene_nodelay_network.node[1].core_layer 	repo_load[1] 	82087
scalar abilene_nodelay_network.node[1].core_layer 	data[1] 	203090
scalar abilene_nodelay_network.node[1].core_layer 	slots_sent[face$o[1]->client[1]] 	124412019
scalar abilene_nodelay_network.node[1].core_layer 	slots_sent[face$o[2]->node[0]] 	14748291
scalar abilene_nodelay_network.node[1].core_layer 	slots_sent[face$o[3]->node[10]] 	11195808
scalar abilene_nodelay_network.node[1].core_layer 	slots_sent[face$o[4]->node[2]] 	29660630
scalar abilene_nodelay_network.node[1].content_store 	p_hit[1] 	0.32750631397989
scalar abilene_nodelay_network.node[1].content_store 	hits[1] 	138882
scalar abilene_nodelay_network.node[1].content_store 	misses[1] 	285177
scalar abilene_nodelay_network.node[1].content_store 	decision_yes[1] 	203090
scalar abilene_nodelay_network.node[1].content_store 	decision_no[1] 	82087
scalar abilene_nodelay_network.node[1].content_store 	decision_ratio[1] 	0.71215420598435
scalar abilene_nodelay_network.node[1].content_store 	"representation_breakdown[1] 31516:5434:2392:1546:4086:" 	0
scalar abilene_nodelay_network.node[1].proactive_component 	hdistance[1].proactive_component 	2.1334045897825
scalar abilene_nodelay_network.node[1].proactive_component 	downloads[1].proactive_component 	814897
scalar abilene_nodelay_network.node[1].proactive_component 	avg_time[1].proactive_component 	0
scalar abilene_nodelay_network.node[2].core_layer 	interests[2] 	547577
scalar abilene_nodelay_network.node[2].core_layer 	repo_load[2] 	79728
scalar abilene_nodelay_network.node[2].core_layer 	data[2] 	306910
scalar abilene_nodelay_network.node[2].core_layer 	slots_sent[face$o[1]->client[2]] 	125408588
scalar abilene_nodelay_network.node[2].core_layer 	slots_sent[face$o[2]->node[1]] 	31905275
scalar abilene_nodelay_network.node[2].core_layer 	slots_sent[face$o[3]->node[3]] 	37986806
scalar abilene_nodelay_network.node[2].core_layer 	slots_sent[face$o[4]->node[8]] 	15127857
scalar abilene_nodelay_network.node[2].content_store 	p_hit[2] 	0.29391117596247
scalar abilene_nodelay_network.node[2].content_store 	hits[2] 	160939
scalar abilene_nodelay_network.node[2].content_store 	misses[2] 	386638
scalar abilene_nodelay_network.node[2].content_store 	decision_yes[2] 	306910
scalar abilene_nodelay_network.node[2].content_store 	decision_no[2] 	79728
scalar abilene_nodelay_network.node[2].content_store 	decision_ratio[2] 	0.79379160868823
scalar abilene_nodelay_network.node[2].content_store 	"representation_breakdown[2] 31348:5654:2471:1582:3997:" 	0
scalar abilene_nodelay_network.node[2].proactive_component 	hdistance[2].proactive_component 	2.0300119557773
scalar abilene_nodelay_network.node[2].proactive_component 	downloads[2].proactive_component 	1150908
scalar abilene_nodelay_network.node[2].proactive_component 	avg_time[2].proactive_component 	0
scalar abilene_nodelay_network.node[3].core_layer 	interests[3] 	517731
scalar abilene_nodelay_network.node[3].core_layer 	repo_load[3] 	79814
scalar abilene_nodelay_network.node[3].core_layer 	data[3] 	279601
scalar abilene_nodelay_network.node[3].core_layer 	slots_sent[face$o[1]->client[3]] 	127064892
scalar abilene_nodelay_network.node[3].core_layer 	slots_sent[face$o[2]->node[2]] 	38040371
scalar abilene_nodelay_network.node[3].core_layer 	slots_sent[face$o[3]->node[4]] 	23618380
scalar abilene_nodelay_network.node[3].core_layer 	slots_sent[face$o[4]->node[7]] 	16784096
scalar abilene_nodelay_network.node[3].content_store 	p_hit[3] 	0.30578814094578
scalar abilene_nodelay_network.node[3].content_store 	hits[3] 	158316
scalar abilene_nodelay_network.node[3].content_store 	misses[3] 	359415
scalar abilene_nodelay_network.node[3].content_store 	decision_yes[3] 	279601
scalar abilene_nodelay_network.node[3].content_store 	decision_no[3] 	79814
scalar abilene_nodelay_network.node[3].content_store 	decision_ratio[3] 	0.77793358652254
scalar abilene_nodelay_network.node[3].content_store 	"representation_breakdown[3] 31623:5553:2404:1572:4029:" 	0
scalar abilene_nodelay_network.node[3].proactive_component 	hdistance[3].proactive_component 	2.0382073308327
scalar abilene_nodelay_network.node[3].proactive_component 	downloads[3].proactive_component 	1066209
scalar abilene_nodelay_network.node[3].proactive_component 	avg_time[3].proactive_component 	0
scalar abilene_nodelay_network.node[4].core_layer 	interests[4] 	332357
scalar abilene_nodelay_network.node[4].core_layer 	repo_load[4] 	74383
scalar abilene_nodelay_network.node[4].core_layer 	data[4] 	127330
scalar abilene_nodelay_network.node[4].core_layer 	slots_sent[face$o[1]->client[4]] 	130823238
scalar abilene_nodelay_network.node[4].core_layer 	slots_sent[face$o[2]->node[3]] 	21211577
scalar abilene_nodelay_network.node[4].core_layer 	slots_sent[face$o[3]->node[5]] 	12530123
scalar abilene_nodelay_network.node[4].content_store 	p_hit[4] 	0.3930833411061
scalar abilene_nodelay_network.node[4].content_store 	hits[4] 	130644
scalar abilene_nodelay_network.node[4].content_store 	misses[4] 	201713
scalar abilene_nodelay_network.node[4].content_store 	decision_yes[4] 	127330
scalar abilene_nodelay_network.node[4].content_store 	decision_no[4] 	74383
scalar abilene_nodelay_network.node[4].content_store 	decision_ratio[4] 	0.63124340027663
scalar abilene_nodelay_network.node[4].content_store 	"representation_breakdown[4] 31041:5091:2127:1390:4420:" 	0
scalar abilene_nodelay_network.node[4].proactive_component 	hdistance[4].proactive_component 	2.2323085762308
scalar abilene_nodelay_network.node[4].proactive_component 	downloads[4].proactive_component 	583065
scalar abilene_nodelay_network.node[4].proactive_component 	avg_time[4].proactive_component 	0
scalar abilene_nodelay_network.node[5].core_layer 	interests[5] 	272084
scalar abilene_nodelay_network.node[5].core_layer 	repo_load[5] 	78739
scalar abilene_nodelay_network.node[5].core_layer 	data[5] 	79235
scalar abilene_nodelay_network.node[5].core_layer 	slots_sent[face$o[1]->client[5]] 	125329682
scalar abilene_nodelay_network.node[5].core_layer 	slots_sent[face$o[2]->node[4]] 	11517116
scalar abilene_nodelay_network.node[5].core_layer 	slots_sent[face$o[3]->node[6]] 	8436931
scalar abilene_nodelay_network.node[5].content_store 	p_hit[5] 	0.41939254053895
scalar abilene_nodelay_network.node[5].content_store 	hits[5] 	114110
scalar abilene_nodelay_network.node[5].content_store 	misses[5] 	157974
scalar abilene_nodelay_network.node[5].content_store 	decision_yes[5] 	79235
scalar abilene_nodelay_network.node[5].content_store 	decision_no[5] 	78739
scalar abilene_nodelay_network.node[5].content_store 	decision_ratio[5] 	0.50156987858762
scalar abilene_nodelay_network.node[5].content_store 	"representation_breakdown[5] 31423:4707:1986:1245:4628:" 	0
scalar abilene_nodelay_network.node[5].proactive_component 	hdistance[5].proactive_component 	2.2759706269072
scalar abilene_nodelay_network.node[5].proactive_component 	downloads[5].proactive_component 	403090
scalar abilene_nodelay_network.node[5].proactive_component 	avg_time[5].proactive_component 	0
scalar abilene_nodelay_network.node[6].core_layer 	interests[6] 	302554
scalar abilene_nodelay_network.node[6].core_layer 	repo_load[6] 	77103
scalar abilene_nodelay_network.node[6].core_layer 	data[6] 	104466
scalar abilene_nodelay_network.node[6].core_layer 	slots_sent[face$o[1]->client[6]] 	125672603
scalar abilene_nodelay_network.node[6].core_layer 	slots_sent[face$o[2]->node[5]] 	9208758
scalar abilene_nodelay_network.node[6].core_layer 	slots_sent[face$o[3]->node[7]] 	17987376
scalar abilene_nodelay_network.node[6].content_store 	p_hit[6] 	0.39987902985913
scalar abilene_nodelay_network.node[6].content_store 	hits[6] 	120985
scalar abilene_nodelay_network.node[6].content_store 	misses[6] 	181569
scalar abilene_nodelay_network.node[6].content_store 	decision_yes[6] 	104466
scalar abilene_nodelay_network.node[6].content_store 	decision_no[6] 	77103
scalar abilene_nodelay_network.node[6].content_store 	decision_ratio[6] 	0.57535151925714
scalar abilene_nodelay_network.node[6].content_store 	"representation_breakdown[6] 31482:5001:2076:1358:4445:" 	0
scalar abilene_nodelay_network.node[6].proactive_component 	hdistance[6].proactive_component 	2.1792432777128
scalar abilene_nodelay_network.node[6].proactive_component 	downloads[6].proactive_component 	508086
scalar abilene_nodelay_network.node[6].proactive_component 	avg_time[6].proactive_component 	0
scalar abilene_nodelay_network.node[7].core_layer 	interests[7] 	402076
scalar abilene_nodelay_network.node[7].core_layer 	repo_load[7] 	80792
scalar abilene_nodelay_network.node[7].core_layer 	data[7] 	179086
scalar abilene_nodelay_network.node[7].core_layer 	slots_sent[face$o[1]->client[7]] 	128880851
scalar abilene_nodelay_network.node[7].core_layer 	slots_sent[face$o[2]->node[3]] 	16059501
scalar abilene_nodelay_network.node[7].core_layer 	slots_sent[face$o[3]->node[6]] 	20267965
scalar abilene_nodelay_network.node[7].core_layer 	slots_sent[face$o[4]->node[8]] 	14191549
scalar abilene_nodelay_network.node[7].content_store 	p_hit[7] 	0.35365950715785
scalar abilene_nodelay_network.node[7].content_store 	hits[7] 	142198
scalar abilene_nodelay_network.node[7].content_store 	misses[7] 	259878
scalar abilene_nodelay_network.node[7].content_store 	decision_yes[7] 	179086
scalar abilene_nodelay_network.node[7].content_store 	decision_no[7] 	80792
scalar abilene_nodelay_network.node[7].content_store 	decision_ratio[7] 	0.68911566196446
scalar abilene_nodelay_network.node[7].content_store 	"representation_breakdown[7] 30853:5355:2294:1514:4223:" 	0
scalar abilene_nodelay_network.node[7].proactive_component 	hdistance[7].proactive_component 	1.9866560058643
scalar abilene_nodelay_network.node[7].proactive_component 	downloads[7].proactive_component 	796688
scalar abilene_nodelay_network.node[7].proactive_component 	avg_time[7].proactive_component 	0
scalar abilene_nodelay_network.node[8].core_layer 	interests[8] 	387584
scalar abilene_nodelay_network.node[8].core_layer 	repo_load[8] 	84627
scalar abilene_nodelay_network.node[8].core_layer 	data[8] 	166717
scalar abilene_nodelay_network.node[8].core_layer 	slots_sent[face$o[1]->client[8]] 	125238630
scalar abilene_nodelay_network.node[8].core_layer 	slots_sent[face$o[2]->node[2]] 	14929772
scalar abilene_nodelay_network.node[8].core_layer 	slots_sent[face$o[3]->node[7]] 	14601311
scalar abilene_nodelay_network.node[8].core_layer 	slots_sent[face$o[4]->node[9]] 	18151819
scalar abilene_nodelay_network.node[8].content_store 	p_hit[8] 	0.35151089828269
scalar abilene_nodelay_network.node[8].content_store 	hits[8] 	136240
scalar abilene_nodelay_network.node[8].content_store 	misses[8] 	251344
scalar abilene_nodelay_network.node[8].content_store 	decision_yes[8] 	166717
scalar abilene_nodelay_network.node[8].content_store 	decision_no[8] 	84627
scalar abilene_nodelay_network.node[8].content_store 	decision_ratio[8] 	0.66330208797505
scalar abilene_nodelay_network.node[8].content_store 	"representation_breakdown[8] 30870:5064:2303:1510:4279:" 	0
scalar abilene_nodelay_network.node[8].proactive_component 	hdistance[8].proactive_component 	1.9605208006907
scalar abilene_nodelay_network.node[8].proactive_component 	downloads[8].proactive_component 	756297
scalar abilene_nodelay_network.node[8].proactive_component 	avg_time[8].proactive_component 	0
scalar abilene_nodelay_network.node[9].core_layer 	interests[9] 	304904
scalar abilene_nodelay_network.node[9].core_layer 	repo_load[9] 	79052
scalar abilene_nodelay_network.node[9].core_layer 	data[9] 	104853
scalar abilene_nodelay_network.node[9].core_layer 	slots_sent[face$o[1]->client[9]] 	124350792
scalar abilene_nodelay_network.node[9].core_layer 	slots_sent[face$o[2]->node[10]] 	11140419
scalar abilene_nodelay_network.node[9].core_layer 	slots_sent[face$o[3]->node[8]] 	16757499
scalar abilene_nodelay_network.node[9].content_store 	p_hit[9] 	0.39684294072889
scalar abilene_nodelay_network.node[9].content_store 	hits[9] 	120999
scalar abilene_nodelay_network.node[9].content_store 	misses[9] 	183905
scalar abilene_nodelay_network.node[9].content_store 	decision_yes[9] 	104853
scalar abilene_nodelay_network.node[9].content_store 	decision_no[9] 	79052
scalar abilene_nodelay_network.node[9].content_store 	decision_ratio[9] 	0.57014763057013
scalar abilene_nodelay_network.node[9].content_store 	"representation_breakdown[9] 31815:4914:2134:1330:4429:" 	0
scalar abilene_nodelay_network.node[9].proactive_component 	hdistance[9].proactive_component 	2.0939847533202
scalar abilene_nodelay_network.node[9].proactive_component 	downloads[9].proactive_component 	521425
scalar abilene_nodelay_network.node[9].proactive_component 	avg_time[9].proactive_component 	0
scalar abilene_nodelay_network.node[10].core_layer 	interests[10] 	296098
scalar abilene_nodelay_network.node[10].core_layer 	repo_load[10] 	93632
scalar abilene_nodelay_network.node[10].core_layer 	data[10] 	93063
scalar abilene_nodelay_network.node[10].core_layer 	slots_sent[face$o[1]->client[10]] 	113846434
scalar abilene_nodelay_network.node[10].core_layer 	slots_sent[face$o[2]->node[0]] 	3811618
scalar abilene_nodelay_network.node[10].core_layer 	slots_sent[face$o[3]->node[1]] 	10912061
scalar abilene_nodelay_network.node[10].core_layer 	slots_sent[face$o[4]->node[9]] 	10464773
scalar abilene_nodelay_network.node[10].content_store 	p_hit[10] 	0.36948240109693
scalar abilene_nodelay_network.node[10].content_store 	hits[10] 	109403
scalar abilene_nodelay_network.node[10].content_store 	misses[10] 	186695
scalar abilene_nodelay_network.node[10].content_store 	decision_yes[10] 	93063
scalar abilene_nodelay_network.node[10].content_store 	decision_no[10] 	93632
scalar abilene_nodelay_network.node[10].content_store 	decision_ratio[10] 	0.49847612415973
scalar abilene_nodelay_network.node[10].content_store 	"representation_breakdown[10] 31395:4806:2041:1395:4480:" 	0
scalar abilene_nodelay_network.node[10].proactive_component 	hdistance[10].proactive_component 	2.1134087276166
scalar abilene_nodelay_network.node[10].proactive_component 	downloads[10].proactive_component 	501099
scalar abilene_nodelay_network.node[10].proactive_component 	avg_time[10].proactive_component 	0
scalar abilene_nodelay_network.client[0] 	hdistance[0].real 	1.0175011828885
scalar abilene_nodelay_network.client[0] 	downloads[0].real 	179645
scalar abilene_nodelay_network.client[0] 	avg_time[0].real 	0
scalar abilene_nodelay_network.client[1] 	hdistance[1].real 	0.93327226802121
scalar abilene_nodelay_network.client[1] 	downloads[1].real 	180135
scalar abilene_nodelay_network.client[1] 	avg_time[1].real 	0
scalar abilene_nodelay_network.client[2] 	hdistance[2].real 	0.82899130483096
scalar abilene_nodelay_network.client[2] 	downloads[2].real 	179985
scalar abilene_nodelay_network.client[2] 	avg_time[2].real 	0
scalar abilene_nodelay_network.client[3] 	hdistance[3].real 	0.84185176317299
scalar abilene_nodelay_network.client[3] 	downloads[3].real 	179591
scalar abilene_nodelay_network.client[3] 	avg_time[3].real 	0
scalar abilene_nodelay_network.client[4] 	hdistance[4].real 	0.95585603610213
scalar abilene_nodelay_network.client[4] 	downloads[4].real 	179934
scalar abilene_nodelay_network.client[4] 	avg_time[4].real 	0
scalar abilene_nodelay_network.client[5] 	hdistance[5].real 	1.053102108768
scalar abilene_nodelay_network.client[5] 	downloads[5].real 	180200
scalar abilene_nodelay_network.client[5] 	avg_time[5].real 	0
scalar abilene_nodelay_network.client[6] 	hdistance[6].real 	1.0054598418643
scalar abilene_nodelay_network.client[6] 	downloads[6].real 	180225
scalar abilene_nodelay_network.client[6] 	avg_time[6].real 	0
scalar abilene_nodelay_network.client[7] 	hdistance[7].real 	0.85263239452988
scalar abilene_nodelay_network.client[7] 	downloads[7].real 	180691
scalar abilene_nodelay_network.client[7] 	avg_time[7].real 	0
scalar abilene_nodelay_network.client[8] 	hdistance[8].real 	0.84544035674471
scalar abilene_nodelay_network.client[8] 	downloads[8].real 	179400
scalar abilene_nodelay_network.client[8] 	avg_time[8].real 	0
scalar abilene_nodelay_network.client[9] 	hdistance[9].real 	0.93762236362018
scalar abilene_nodelay_network.client[9] 	downloads[9].real 	179792
scalar abilene_nodelay_network.client[9] 	avg_time[9].real 	0
scalar abilene_nodelay_network.client[10] 	hdistance[10].real 	1.0247142881047
scalar abilene_nodelay_network.client[10] 	downloads[10].real 	179289
scalar abilene_nodelay_network.client[10] 	avg_time[10].real 	0
