version 2
run General-41-20140715-19:15:06-4057
attr D fix0.01
attr F nrr
attr R lru
attr a 1
attr configname General
attr csize 1e3
attr ctlg 1e7
attr datetime 20140715-19:15:06
attr experiment General
attr inifile omnetpp.ini
attr iterationvars "$net=one_cache_scenario_3_links, $rep=12, $priceratiovalue=10, $weights=0.333_0.333_0.334, $lambda=100, $a=1, $ctlg=1e7, $F=nrr, $ttl=1000, $D=fix0.01, $xi=1, $R=lru, $csize=1e3, $pricebits=0, $window=60, $variance=0.05, $mytime=180000"
attr iterationvars2 "$net=one_cache_scenario_3_links, $rep=12, $priceratiovalue=10, $weights=0.333_0.333_0.334, $lambda=100, $a=1, $ctlg=1e7, $F=nrr, $ttl=1000, $D=fix0.01, $xi=1, $R=lru, $csize=1e3, $pricebits=0, $window=60, $variance=0.05, $mytime=180000, $repetition=0"
attr lambda 100
attr measurement "$net=one_cache_scenario_3_links, $rep=12, $priceratiovalue=10, $weights=0.333_0.333_0.334, $lambda=100, $a=1, $ctlg=1e7, $F=nrr, $ttl=1000, $D=fix0.01, $xi=1, $R=lru, $csize=1e3, $pricebits=0, $window=60, $variance=0.05, $mytime=180000"
attr mytime 180000
attr net one_cache_scenario_3_links
attr network networks.${net=one_cache_scenario_3_links}_network
attr pricebits 0
attr priceratiovalue 10
attr processid 4057
attr rep 12
attr repetition 0
attr replication #0
attr resultdir results
attr runnumber 41
attr seedset 12
attr ttl 1000
attr variance 0.05
attr weights 0.333_0.333_0.334
attr window 60
attr xi 1

scalar . 	a 	1
scalar . 	csize 	1e3
scalar . 	ctlg 	1e7
scalar . 	lambda 	100
scalar . 	mytime 	180000
scalar . 	pricebits 	0
scalar . 	priceratiovalue 	10
scalar . 	rep 	12
scalar . 	ttl 	1000
scalar . 	variance 	0.05
scalar . 	window 	60
scalar . 	xi 	1
scalar one_cache_scenario_3_links_network.content_distribution 	repo-0 	4
scalar one_cache_scenario_3_links_network.content_distribution 	repo-1 	5
scalar one_cache_scenario_3_links_network.content_distribution 	repo-2 	6
scalar one_cache_scenario_3_links_network.content_distribution 	client-0 	0
scalar one_cache_scenario_3_links_network.content_distribution 	repo-0_card 	3329238
scalar one_cache_scenario_3_links_network.content_distribution 	repo-1_card 	3330911
scalar one_cache_scenario_3_links_network.content_distribution 	repo-2_card 	3339851
scalar one_cache_scenario_3_links_network.statistics 	repo_popularity[0] 	0.3197549842694
scalar one_cache_scenario_3_links_network.statistics 	repo_popularity[1] 	0.33214912847893
scalar one_cache_scenario_3_links_network.statistics 	repo_popularity[2] 	0.34809588725167
scalar one_cache_scenario_3_links_network.statistics 	stabilization_time 	1418
scalar one_cache_scenario_3_links_network.node[1].face$o[2].channel 	price[1] 	0
scalar one_cache_scenario_3_links_network.node[1].face$o[2].channel 	represented_price[1] 	0
scalar one_cache_scenario_3_links_network.node[2].face$o[2].channel 	price[2] 	0
scalar one_cache_scenario_3_links_network.node[2].face$o[2].channel 	represented_price[2] 	0
scalar one_cache_scenario_3_links_network.node[3].face$o[2].channel 	price[3] 	0
scalar one_cache_scenario_3_links_network.node[3].face$o[2].channel 	represented_price[3] 	0
scalar one_cache_scenario_3_links_network.node[4].face$o[1].channel 	price[4] 	0
scalar one_cache_scenario_3_links_network.node[4].face$o[1].channel 	represented_price[4] 	0
scalar one_cache_scenario_3_links_network.node[5].face$o[1].channel 	price[5] 	1
scalar one_cache_scenario_3_links_network.node[5].face$o[1].channel 	represented_price[5] 	1
scalar one_cache_scenario_3_links_network.node[6].face$o[1].channel 	price[6] 	10
scalar one_cache_scenario_3_links_network.node[6].face$o[1].channel 	represented_price[6] 	10
scalar one_cache_scenario_3_links_network.statistics 	p_hit 	0.19671177071946
scalar one_cache_scenario_3_links_network.statistics 	interests 	5536214.5714286
scalar one_cache_scenario_3_links_network.statistics 	data 	2964784
scalar one_cache_scenario_3_links_network.statistics 	hdistance 	1.1529706588006
scalar one_cache_scenario_3_links_network.statistics 	avg_time 	0
scalar one_cache_scenario_3_links_network.statistics 	downloads 	18000014
scalar one_cache_scenario_3_links_network.statistics 	total_cost 	38030401
scalar one_cache_scenario_3_links_network.statistics 	total_replicas 	10000000
scalar one_cache_scenario_3_links_network.statistics 	inner_hit 	0.4235146705997
scalar one_cache_scenario_3_links_network.statistics 	interests_sent 	18000014
scalar one_cache_scenario_3_links_network.node[0].core_layer 	interests[0] 	18000014
scalar one_cache_scenario_3_links_network.node[0].core_layer 	data[0] 	10376744
scalar one_cache_scenario_3_links_network.node[0].core_layer 	repo_int[0] 	10376744
scalar one_cache_scenario_3_links_network.node[0].content_store 	p_hit[0] 	0.4235146705997
scalar one_cache_scenario_3_links_network.node[0].content_store 	hits[0] 	7623270
scalar one_cache_scenario_3_links_network.node[0].content_store 	misses[0] 	10376744
scalar one_cache_scenario_3_links_network.node[0].content_store 	decision_yes[0] 	103540
scalar one_cache_scenario_3_links_network.node[0].content_store 	decision_no[0] 	10273204
scalar one_cache_scenario_3_links_network.node[0].content_store 	decision_ratio[0] 	0.0099780817566666
scalar one_cache_scenario_3_links_network.node[1].core_layer 	interests[1] 	3451990
scalar one_cache_scenario_3_links_network.node[1].core_layer 	data[1] 	3451990
scalar one_cache_scenario_3_links_network.node[1].content_store 	p_hit[1] 	0
scalar one_cache_scenario_3_links_network.node[1].content_store 	hits[1] 	0
scalar one_cache_scenario_3_links_network.node[1].content_store 	misses[1] 	3451990
scalar one_cache_scenario_3_links_network.node[1].content_store 	decision_yes[1] 	0
scalar one_cache_scenario_3_links_network.node[1].content_store 	decision_no[1] 	3451990
scalar one_cache_scenario_3_links_network.node[1].content_store 	decision_ratio[1] 	0
scalar one_cache_scenario_3_links_network.node[2].core_layer 	interests[2] 	3468571
scalar one_cache_scenario_3_links_network.node[2].core_layer 	data[2] 	3468571
scalar one_cache_scenario_3_links_network.node[2].content_store 	p_hit[2] 	0
scalar one_cache_scenario_3_links_network.node[2].content_store 	hits[2] 	0
scalar one_cache_scenario_3_links_network.node[2].content_store 	misses[2] 	3468571
scalar one_cache_scenario_3_links_network.node[2].content_store 	decision_yes[2] 	0
scalar one_cache_scenario_3_links_network.node[2].content_store 	decision_no[2] 	3468571
scalar one_cache_scenario_3_links_network.node[2].content_store 	decision_ratio[2] 	0
scalar one_cache_scenario_3_links_network.node[3].core_layer 	interests[3] 	3456183
scalar one_cache_scenario_3_links_network.node[3].core_layer 	data[3] 	3456183
scalar one_cache_scenario_3_links_network.node[3].content_store 	p_hit[3] 	0
scalar one_cache_scenario_3_links_network.node[3].content_store 	hits[3] 	0
scalar one_cache_scenario_3_links_network.node[3].content_store 	misses[3] 	3456183
scalar one_cache_scenario_3_links_network.node[3].content_store 	decision_yes[3] 	0
scalar one_cache_scenario_3_links_network.node[3].content_store 	decision_no[3] 	3456183
scalar one_cache_scenario_3_links_network.node[3].content_store 	decision_ratio[3] 	0
scalar one_cache_scenario_3_links_network.node[4].core_layer 	interests[4] 	3451990
scalar one_cache_scenario_3_links_network.node[4].core_layer 	repo_load[4] 	3451990
scalar one_cache_scenario_3_links_network.node[4].core_layer 	data[4] 	0
scalar one_cache_scenario_3_links_network.node[4].content_store 	p_hit[4] 	0
scalar one_cache_scenario_3_links_network.node[4].content_store 	hits[4] 	0
scalar one_cache_scenario_3_links_network.node[4].content_store 	misses[4] 	3451990
scalar one_cache_scenario_3_links_network.node[4].content_store 	decision_yes[4] 	0
scalar one_cache_scenario_3_links_network.node[4].content_store 	decision_no[4] 	3451990
scalar one_cache_scenario_3_links_network.node[4].content_store 	decision_ratio[4] 	0
scalar one_cache_scenario_3_links_network.node[5].core_layer 	interests[5] 	3468571
scalar one_cache_scenario_3_links_network.node[5].core_layer 	repo_load[5] 	3468571
scalar one_cache_scenario_3_links_network.node[5].core_layer 	data[5] 	0
scalar one_cache_scenario_3_links_network.node[5].content_store 	p_hit[5] 	0
scalar one_cache_scenario_3_links_network.node[5].content_store 	hits[5] 	0
scalar one_cache_scenario_3_links_network.node[5].content_store 	misses[5] 	3468571
scalar one_cache_scenario_3_links_network.node[5].content_store 	decision_yes[5] 	0
scalar one_cache_scenario_3_links_network.node[5].content_store 	decision_no[5] 	3468571
scalar one_cache_scenario_3_links_network.node[5].content_store 	decision_ratio[5] 	0
scalar one_cache_scenario_3_links_network.node[6].core_layer 	interests[6] 	3456183
scalar one_cache_scenario_3_links_network.node[6].core_layer 	repo_load[6] 	3456183
scalar one_cache_scenario_3_links_network.node[6].core_layer 	data[6] 	0
scalar one_cache_scenario_3_links_network.node[6].content_store 	p_hit[6] 	0
scalar one_cache_scenario_3_links_network.node[6].content_store 	hits[6] 	0
scalar one_cache_scenario_3_links_network.node[6].content_store 	misses[6] 	3456183
scalar one_cache_scenario_3_links_network.node[6].content_store 	decision_yes[6] 	0
scalar one_cache_scenario_3_links_network.node[6].content_store 	decision_no[6] 	3456183
scalar one_cache_scenario_3_links_network.node[6].content_store 	decision_ratio[6] 	0
scalar one_cache_scenario_3_links_network.client[0] 	hdistance[0] 	1.1529706588006
scalar one_cache_scenario_3_links_network.client[0] 	downloads[0] 	18000014
scalar one_cache_scenario_3_links_network.client[0] 	avg_time[0] 	0
scalar one_cache_scenario_3_links_network.client[0] 	interests_sent[0] 	18000014
