version 2
run General-1-20150720-10:13:27-12390
attr C 1167
attr D lce
attr F spr
attr R lru
attr a 1
attr brates 1
attr configname General
attr ctlg 1e4
attr datetime 20150720-10:13:27
attr experiment General
attr inifile omnetpp.ini
attr iterationvars "$net=abilene_nodelay, $rep=0, $lambda=100, $a=1, $ctlg=1e4, $brates=1, $F=spr, $ttl=1000, $D=lce, $R=lru, $C=1167, $window=60, $variance=0.05, $mytime=1800"
attr iterationvars2 "$net=abilene_nodelay, $rep=0, $lambda=100, $a=1, $ctlg=1e4, $brates=1, $F=spr, $ttl=1000, $D=lce, $R=lru, $C=1167, $window=60, $variance=0.05, $mytime=1800, $repetition=0"
attr lambda 100
attr measurement "$net=abilene_nodelay, $rep=0, $lambda=100, $a=1, $ctlg=1e4, $brates=1, $F=spr, $ttl=1000, $D=lce, $R=lru, $C=1167, $window=60, $variance=0.05, $mytime=1800"
attr mytime 1800
attr net abilene_nodelay
attr network networks.${net=abilene_nodelay}_network
attr processid 12390
attr rep 0
attr repetition 0
attr replication #0
attr resultdir results
attr runnumber 1
attr seedset 0
attr ttl 1000
attr variance 0.05
attr window 60

scalar . 	C 	1167
scalar . 	a 	1
scalar . 	brates 	1
scalar . 	ctlg 	1e4
scalar . 	lambda 	100
scalar . 	mytime 	1800
scalar . 	rep 	0
scalar . 	ttl 	1000
scalar . 	variance 	0.05
scalar . 	window 	60
scalar abilene_nodelay_network.content_distribution 	repo-0 	5
scalar abilene_nodelay_network.content_distribution 	repo-1 	8
scalar abilene_nodelay_network.content_distribution 	repo-2 	9
scalar abilene_nodelay_network.content_distribution 	repo-3 	0
scalar abilene_nodelay_network.content_distribution 	repo-4 	1
scalar abilene_nodelay_network.content_distribution 	repo-5 	7
scalar abilene_nodelay_network.content_distribution 	repo-6 	6
scalar abilene_nodelay_network.content_distribution 	repo-7 	2
scalar abilene_nodelay_network.content_distribution 	repo-8 	4
scalar abilene_nodelay_network.content_distribution 	repo-9 	10
scalar abilene_nodelay_network.content_distribution 	repo-10 	3
scalar abilene_nodelay_network.content_distribution 	client-0 	10
scalar abilene_nodelay_network.content_distribution 	client-1 	9
scalar abilene_nodelay_network.content_distribution 	client-2 	8
scalar abilene_nodelay_network.content_distribution 	client-3 	7
scalar abilene_nodelay_network.content_distribution 	client-4 	3
scalar abilene_nodelay_network.content_distribution 	client-5 	6
scalar abilene_nodelay_network.content_distribution 	client-6 	5
scalar abilene_nodelay_network.content_distribution 	client-7 	1
scalar abilene_nodelay_network.content_distribution 	client-8 	4
scalar abilene_nodelay_network.content_distribution 	client-9 	0
scalar abilene_nodelay_network.content_distribution 	client-10 	2
scalar abilene_nodelay_network.content_distribution 	repo-0_card 	930
scalar abilene_nodelay_network.content_distribution 	repo-0_price 	0
scalar abilene_nodelay_network.content_distribution 	repo-1_card 	833
scalar abilene_nodelay_network.content_distribution 	repo-1_price 	0
scalar abilene_nodelay_network.content_distribution 	repo-2_card 	911
scalar abilene_nodelay_network.content_distribution 	repo-2_price 	0
scalar abilene_nodelay_network.content_distribution 	repo-3_card 	918
scalar abilene_nodelay_network.content_distribution 	repo-3_price 	0
scalar abilene_nodelay_network.content_distribution 	repo-4_card 	885
scalar abilene_nodelay_network.content_distribution 	repo-4_price 	0
scalar abilene_nodelay_network.content_distribution 	repo-5_card 	973
scalar abilene_nodelay_network.content_distribution 	repo-5_price 	0
scalar abilene_nodelay_network.content_distribution 	repo-6_card 	915
scalar abilene_nodelay_network.content_distribution 	repo-6_price 	0
scalar abilene_nodelay_network.content_distribution 	repo-7_card 	937
scalar abilene_nodelay_network.content_distribution 	repo-7_price 	0
scalar abilene_nodelay_network.content_distribution 	repo-8_card 	890
scalar abilene_nodelay_network.content_distribution 	repo-8_price 	0
scalar abilene_nodelay_network.content_distribution 	repo-9_card 	891
scalar abilene_nodelay_network.content_distribution 	repo-9_price 	0
scalar abilene_nodelay_network.content_distribution 	repo-10_card 	917
scalar abilene_nodelay_network.content_distribution 	repo-10_price 	0
scalar abilene_nodelay_network.statistics 	stabilization_time 	93.3
scalar abilene_nodelay_network.statistics 	p_hit 	0.40894681668323
scalar abilene_nodelay_network.statistics 	interests 	296670.27272727
scalar abilene_nodelay_network.statistics 	data 	116909.18181818
scalar abilene_nodelay_network.statistics 	hdistance 	0.97540185347201
scalar abilene_nodelay_network.statistics 	avg_time 	0
scalar abilene_nodelay_network.statistics 	downloads 	1977372
scalar abilene_nodelay_network.statistics 	total_cost 	0
scalar abilene_nodelay_network.statistics 	total_replicas 	10000
scalar abilene_nodelay_network.statistics 	"representations_downloaded 1:" 	0
scalar abilene_nodelay_network.statistics 	"slots_per_representation 100:" 	0
scalar abilene_nodelay_network.statistics 	inner_hit 	0.6749089195154
scalar abilene_nodelay_network.statistics 	execution_time 	34
scalar abilene_nodelay_network.node[0].core_layer 	interests[0] 	217812
scalar abilene_nodelay_network.node[0].core_layer 	repo_load[0] 	50283
scalar abilene_nodelay_network.node[0].core_layer 	data[0] 	54450
scalar abilene_nodelay_network.node[0].core_layer 	slots_sent[face$o[1]->client[0]] 	17955200
scalar abilene_nodelay_network.node[0].core_layer 	slots_sent[face$o[2]->node[1]] 	2866700
scalar abilene_nodelay_network.node[0].core_layer 	slots_sent[face$o[3]->node[10]] 	959300
scalar abilene_nodelay_network.node[0].content_store 	p_hit[0] 	0.51915872403724
scalar abilene_nodelay_network.node[0].content_store 	hits[0] 	113079
scalar abilene_nodelay_network.node[0].content_store 	misses[0] 	104733
scalar abilene_nodelay_network.node[0].content_store 	decision_yes[0] 	54450
scalar abilene_nodelay_network.node[0].content_store 	decision_no[0] 	50283
scalar abilene_nodelay_network.node[0].content_store 	decision_ratio[0] 	0.51989344332732
scalar abilene_nodelay_network.node[1].core_layer 	interests[1] 	334403
scalar abilene_nodelay_network.node[1].core_layer 	repo_load[1] 	63520
scalar abilene_nodelay_network.node[1].core_layer 	data[1] 	149642
scalar abilene_nodelay_network.node[1].core_layer 	slots_sent[face$o[1]->client[1]] 	17950900
scalar abilene_nodelay_network.node[1].core_layer 	slots_sent[face$o[2]->node[0]] 	4354900
scalar abilene_nodelay_network.node[1].core_layer 	slots_sent[face$o[3]->node[10]] 	3369200
scalar abilene_nodelay_network.node[1].core_layer 	slots_sent[face$o[4]->node[2]] 	7765300
scalar abilene_nodelay_network.node[1].content_store 	p_hit[1] 	0.36255954641555
scalar abilene_nodelay_network.node[1].content_store 	hits[1] 	121241
scalar abilene_nodelay_network.node[1].content_store 	misses[1] 	213162
scalar abilene_nodelay_network.node[1].content_store 	decision_yes[1] 	149642
scalar abilene_nodelay_network.node[1].content_store 	decision_no[1] 	63520
scalar abilene_nodelay_network.node[1].content_store 	decision_ratio[1] 	0.70201067732523
scalar abilene_nodelay_network.node[2].core_layer 	interests[2] 	426571
scalar abilene_nodelay_network.node[2].core_layer 	repo_load[2] 	74576
scalar abilene_nodelay_network.node[2].core_layer 	data[2] 	221151
scalar abilene_nodelay_network.node[2].core_layer 	slots_sent[face$o[1]->client[2]] 	17981000
scalar abilene_nodelay_network.node[2].core_layer 	slots_sent[face$o[2]->node[1]] 	9290100
scalar abilene_nodelay_network.node[2].core_layer 	slots_sent[face$o[3]->node[3]] 	10739200
scalar abilene_nodelay_network.node[2].core_layer 	slots_sent[face$o[4]->node[8]] 	4646800
scalar abilene_nodelay_network.node[2].content_store 	p_hit[2] 	0.30673440060389
scalar abilene_nodelay_network.node[2].content_store 	hits[2] 	130844
scalar abilene_nodelay_network.node[2].content_store 	misses[2] 	295727
scalar abilene_nodelay_network.node[2].content_store 	decision_yes[2] 	221151
scalar abilene_nodelay_network.node[2].content_store 	decision_no[2] 	74576
scalar abilene_nodelay_network.node[2].content_store 	decision_ratio[2] 	0.74782147047784
scalar abilene_nodelay_network.node[3].core_layer 	interests[3] 	404790
scalar abilene_nodelay_network.node[3].core_layer 	repo_load[3] 	60263
scalar abilene_nodelay_network.node[3].core_layer 	data[3] 	206317
scalar abilene_nodelay_network.node[3].core_layer 	slots_sent[face$o[1]->client[3]] 	17950100
scalar abilene_nodelay_network.node[3].core_layer 	slots_sent[face$o[2]->node[2]] 	10449200
scalar abilene_nodelay_network.node[3].core_layer 	slots_sent[face$o[3]->node[4]] 	6944000
scalar abilene_nodelay_network.node[3].core_layer 	slots_sent[face$o[4]->node[7]] 	5135700
scalar abilene_nodelay_network.node[3].content_store 	p_hit[3] 	0.34143630030386
scalar abilene_nodelay_network.node[3].content_store 	hits[3] 	138210
scalar abilene_nodelay_network.node[3].content_store 	misses[3] 	266580
scalar abilene_nodelay_network.node[3].content_store 	decision_yes[3] 	206317
scalar abilene_nodelay_network.node[3].content_store 	decision_no[3] 	60263
scalar abilene_nodelay_network.node[3].content_store 	decision_ratio[3] 	0.77394028059119
scalar abilene_nodelay_network.node[4].core_layer 	interests[4] 	271451
scalar abilene_nodelay_network.node[4].core_layer 	repo_load[4] 	51425
scalar abilene_nodelay_network.node[4].core_layer 	data[4] 	97246
scalar abilene_nodelay_network.node[4].core_layer 	slots_sent[face$o[1]->client[4]] 	17967900
scalar abilene_nodelay_network.node[4].core_layer 	slots_sent[face$o[2]->node[3]] 	5433900
scalar abilene_nodelay_network.node[4].core_layer 	slots_sent[face$o[3]->node[5]] 	3743300
scalar abilene_nodelay_network.node[4].content_store 	p_hit[4] 	0.45230999333213
scalar abilene_nodelay_network.node[4].content_store 	hits[4] 	122780
scalar abilene_nodelay_network.node[4].content_store 	misses[4] 	148671
scalar abilene_nodelay_network.node[4].content_store 	decision_yes[4] 	97246
scalar abilene_nodelay_network.node[4].content_store 	decision_no[4] 	51425
scalar abilene_nodelay_network.node[4].content_store 	decision_ratio[4] 	0.65410201047952
scalar abilene_nodelay_network.node[5].core_layer 	interests[5] 	229165
scalar abilene_nodelay_network.node[5].core_layer 	repo_load[5] 	67304
scalar abilene_nodelay_network.node[5].core_layer 	data[5] 	63234
scalar abilene_nodelay_network.node[5].core_layer 	slots_sent[face$o[1]->client[5]] 	17994700
scalar abilene_nodelay_network.node[5].core_layer 	slots_sent[face$o[2]->node[4]] 	2780600
scalar abilene_nodelay_network.node[5].core_layer 	slots_sent[face$o[3]->node[6]] 	2141200
scalar abilene_nodelay_network.node[5].content_store 	p_hit[5] 	0.43037549363995
scalar abilene_nodelay_network.node[5].content_store 	hits[5] 	98627
scalar abilene_nodelay_network.node[5].content_store 	misses[5] 	130538
scalar abilene_nodelay_network.node[5].content_store 	decision_yes[5] 	63234
scalar abilene_nodelay_network.node[5].content_store 	decision_no[5] 	67304
scalar abilene_nodelay_network.node[5].content_store 	decision_ratio[5] 	0.48441066969005
scalar abilene_nodelay_network.node[6].core_layer 	interests[6] 	249551
scalar abilene_nodelay_network.node[6].core_layer 	repo_load[6] 	50017
scalar abilene_nodelay_network.node[6].core_layer 	data[6] 	80670
scalar abilene_nodelay_network.node[6].core_layer 	slots_sent[face$o[1]->client[6]] 	18033100
scalar abilene_nodelay_network.node[6].core_layer 	slots_sent[face$o[2]->node[5]] 	2580100
scalar abilene_nodelay_network.node[6].core_layer 	slots_sent[face$o[3]->node[7]] 	4341900
scalar abilene_nodelay_network.node[6].content_store 	p_hit[6] 	0.47631145537385
scalar abilene_nodelay_network.node[6].content_store 	hits[6] 	118864
scalar abilene_nodelay_network.node[6].content_store 	misses[6] 	130687
scalar abilene_nodelay_network.node[6].content_store 	decision_yes[6] 	80670
scalar abilene_nodelay_network.node[6].content_store 	decision_no[6] 	50017
scalar abilene_nodelay_network.node[6].content_store 	decision_ratio[6] 	0.61727639321432
scalar abilene_nodelay_network.node[7].core_layer 	interests[7] 	323609
scalar abilene_nodelay_network.node[7].core_layer 	repo_load[7] 	58522
scalar abilene_nodelay_network.node[7].core_layer 	data[7] 	132908
scalar abilene_nodelay_network.node[7].core_layer 	slots_sent[face$o[1]->client[7]] 	17959300
scalar abilene_nodelay_network.node[7].core_layer 	slots_sent[face$o[2]->node[3]] 	4458600
scalar abilene_nodelay_network.node[7].core_layer 	slots_sent[face$o[3]->node[6]] 	5925800
scalar abilene_nodelay_network.node[7].core_layer 	slots_sent[face$o[4]->node[8]] 	4017200
scalar abilene_nodelay_network.node[7].content_store 	p_hit[7] 	0.40845279334011
scalar abilene_nodelay_network.node[7].content_store 	hits[7] 	132179
scalar abilene_nodelay_network.node[7].content_store 	misses[7] 	191430
scalar abilene_nodelay_network.node[7].content_store 	decision_yes[7] 	132908
scalar abilene_nodelay_network.node[7].content_store 	decision_no[7] 	58522
scalar abilene_nodelay_network.node[7].content_store 	decision_ratio[7] 	0.69429034111686
scalar abilene_nodelay_network.node[8].core_layer 	interests[8] 	310206
scalar abilene_nodelay_network.node[8].core_layer 	repo_load[8] 	52036
scalar abilene_nodelay_network.node[8].core_layer 	data[8] 	126645
scalar abilene_nodelay_network.node[8].core_layer 	slots_sent[face$o[1]->client[8]] 	17936800
scalar abilene_nodelay_network.node[8].core_layer 	slots_sent[face$o[2]->node[2]] 	3900600
scalar abilene_nodelay_network.node[8].core_layer 	slots_sent[face$o[3]->node[7]] 	3813200
scalar abilene_nodelay_network.node[8].core_layer 	slots_sent[face$o[4]->node[9]] 	5370000
scalar abilene_nodelay_network.node[8].content_store 	p_hit[8] 	0.42399244373094
scalar abilene_nodelay_network.node[8].content_store 	hits[8] 	131525
scalar abilene_nodelay_network.node[8].content_store 	misses[8] 	178681
scalar abilene_nodelay_network.node[8].content_store 	decision_yes[8] 	126645
scalar abilene_nodelay_network.node[8].content_store 	decision_no[8] 	52036
scalar abilene_nodelay_network.node[8].content_store 	decision_ratio[8] 	0.70877709437489
scalar abilene_nodelay_network.node[9].core_layer 	interests[9] 	249774
scalar abilene_nodelay_network.node[9].core_layer 	repo_load[9] 	53662
scalar abilene_nodelay_network.node[9].core_layer 	data[9] 	80577
scalar abilene_nodelay_network.node[9].core_layer 	slots_sent[face$o[1]->client[9]] 	17989300
scalar abilene_nodelay_network.node[9].core_layer 	slots_sent[face$o[2]->node[10]] 	2987600
scalar abilene_nodelay_network.node[9].core_layer 	slots_sent[face$o[3]->node[8]] 	4000500
scalar abilene_nodelay_network.node[9].content_store 	p_hit[9] 	0.46255815256992
scalar abilene_nodelay_network.node[9].content_store 	hits[9] 	115535
scalar abilene_nodelay_network.node[9].content_store 	misses[9] 	134239
scalar abilene_nodelay_network.node[9].content_store 	decision_yes[9] 	80577
scalar abilene_nodelay_network.node[9].content_store 	decision_no[9] 	53662
scalar abilene_nodelay_network.node[9].content_store 	decision_ratio[9] 	0.60025029983835
scalar abilene_nodelay_network.node[10].core_layer 	interests[10] 	246041
scalar abilene_nodelay_network.node[10].core_layer 	repo_load[10] 	61218
scalar abilene_nodelay_network.node[10].core_layer 	data[10] 	73161
scalar abilene_nodelay_network.node[10].core_layer 	slots_sent[face$o[1]->client[10]] 	18018900
scalar abilene_nodelay_network.node[10].core_layer 	slots_sent[face$o[2]->node[0]] 	1090100
scalar abilene_nodelay_network.node[10].core_layer 	slots_sent[face$o[3]->node[1]] 	2807400
scalar abilene_nodelay_network.node[10].core_layer 	slots_sent[face$o[4]->node[9]] 	2687700
scalar abilene_nodelay_network.node[10].content_store 	p_hit[10] 	0.4538349299507
scalar abilene_nodelay_network.node[10].content_store 	hits[10] 	111662
scalar abilene_nodelay_network.node[10].content_store 	misses[10] 	134379
scalar abilene_nodelay_network.node[10].content_store 	decision_yes[10] 	73161
scalar abilene_nodelay_network.node[10].content_store 	decision_no[10] 	61218
scalar abilene_nodelay_network.node[10].content_store 	decision_ratio[10] 	0.54443774696939
scalar abilene_nodelay_network.client[0] 	hdistance[0].real 	1.012932186776
scalar abilene_nodelay_network.client[0] 	downloads[0].real 	179552
scalar abilene_nodelay_network.client[0] 	avg_time[0].real 	0
scalar abilene_nodelay_network.client[1] 	hdistance[1].real 	1.034677927012
scalar abilene_nodelay_network.client[1] 	downloads[1].real 	179509
scalar abilene_nodelay_network.client[1] 	avg_time[1].real 	0
scalar abilene_nodelay_network.client[2] 	hdistance[2].real 	0.95135976864468
scalar abilene_nodelay_network.client[2] 	downloads[2].real 	179810
scalar abilene_nodelay_network.client[2] 	avg_time[2].real 	0
scalar abilene_nodelay_network.client[3] 	hdistance[3].real 	0.92746001415034
scalar abilene_nodelay_network.client[3] 	downloads[3].real 	179501
scalar abilene_nodelay_network.client[3] 	avg_time[3].real 	0
scalar abilene_nodelay_network.client[4] 	hdistance[4].real 	0.99828583195587
scalar abilene_nodelay_network.client[4] 	downloads[4].real 	179679
scalar abilene_nodelay_network.client[4] 	avg_time[4].real 	0
scalar abilene_nodelay_network.client[5] 	hdistance[5].real 	1.1054421579687
scalar abilene_nodelay_network.client[5] 	downloads[5].real 	179947
scalar abilene_nodelay_network.client[5] 	avg_time[5].real 	0
scalar abilene_nodelay_network.client[6] 	hdistance[6].real 	0.99769867632299
scalar abilene_nodelay_network.client[6] 	downloads[6].real 	180331
scalar abilene_nodelay_network.client[6] 	avg_time[6].real 	0
scalar abilene_nodelay_network.client[7] 	hdistance[7].real 	0.88449438452501
scalar abilene_nodelay_network.client[7] 	downloads[7].real 	179593
scalar abilene_nodelay_network.client[7] 	avg_time[7].real 	0
scalar abilene_nodelay_network.client[8] 	hdistance[8].real 	0.85835266045226
scalar abilene_nodelay_network.client[8] 	downloads[8].real 	179368
scalar abilene_nodelay_network.client[8] 	avg_time[8].real 	0
scalar abilene_nodelay_network.client[9] 	hdistance[9].real 	0.95343898873219
scalar abilene_nodelay_network.client[9] 	downloads[9].real 	179893
scalar abilene_nodelay_network.client[9] 	avg_time[9].real 	0
scalar abilene_nodelay_network.client[10] 	hdistance[10].real 	1.0052777916521
scalar abilene_nodelay_network.client[10] 	downloads[10].real 	180189
scalar abilene_nodelay_network.client[10] 	avg_time[10].real 	0
