version 2
run General-0-20150710-19:44:52-1903
attr D lce
attr F spr
attr R lru_repr
attr a 1
attr brates 0.3_3.5
attr configname General
attr datetime 20150710-19:44:52
attr experiment General
attr inifile omnetpp.ini
attr iterationvars "$net=abilene_nodelay, $rep=0, $lambda=100, $a=1, $brates=0.3_3.5, $F=spr, $ttl=1000, $D=lce, $R=lru_repr, $window=60, $variance=0.05, $mytime=180"
attr iterationvars2 "$net=abilene_nodelay, $rep=0, $lambda=100, $a=1, $brates=0.3_3.5, $F=spr, $ttl=1000, $D=lce, $R=lru_repr, $window=60, $variance=0.05, $mytime=180, $repetition=0"
attr lambda 100
attr measurement "$net=abilene_nodelay, $rep=0, $lambda=100, $a=1, $brates=0.3_3.5, $F=spr, $ttl=1000, $D=lce, $R=lru_repr, $window=60, $variance=0.05, $mytime=180"
attr mytime 180
attr net abilene_nodelay
attr network networks.${net=abilene_nodelay}_network
attr processid 1903
attr rep 0
attr repetition 0
attr replication #0
attr resultdir results
attr runnumber 0
attr seedset 0
attr ttl 1000
attr variance 0.05
attr window 60

scalar . 	a 	1
scalar . 	lambda 	100
scalar . 	mytime 	180
scalar . 	rep 	0
scalar . 	ttl 	1000
scalar . 	variance 	0.05
scalar . 	window 	60
scalar abilene_nodelay_network.content_distribution 	repo-0 	5
scalar abilene_nodelay_network.content_distribution 	client-0 	8
scalar abilene_nodelay_network.content_distribution 	client-1 	9
scalar abilene_nodelay_network.content_distribution 	client-2 	5
scalar abilene_nodelay_network.content_distribution 	client-3 	0
scalar abilene_nodelay_network.content_distribution 	client-4 	1
scalar abilene_nodelay_network.content_distribution 	client-5 	7
scalar abilene_nodelay_network.content_distribution 	client-6 	6
scalar abilene_nodelay_network.content_distribution 	client-7 	2
scalar abilene_nodelay_network.content_distribution 	client-8 	4
scalar abilene_nodelay_network.content_distribution 	client-9 	10
scalar abilene_nodelay_network.content_distribution 	client-10 	3
scalar abilene_nodelay_network.content_distribution 	repo-0_card 	10
scalar abilene_nodelay_network.content_distribution 	repo-0_price 	0
scalar abilene_nodelay_network.statistics 	p_hit 	0.10421772294492
scalar abilene_nodelay_network.statistics 	interests 	91031.454545455
scalar abilene_nodelay_network.statistics 	data 	59622.181818182
scalar abilene_nodelay_network.statistics 	hdistance 	2.3573666253667
scalar abilene_nodelay_network.statistics 	avg_time 	0
scalar abilene_nodelay_network.statistics 	downloads 	271255
scalar abilene_nodelay_network.statistics 	total_cost 	0
scalar abilene_nodelay_network.statistics 	total_replicas 	10
scalar abilene_nodelay_network.statistics 	"slots_per_representation 100:1167:" 	0
scalar abilene_nodelay_network.statistics 	inner_hit 	0.11100624873274
scalar abilene_nodelay_network.statistics 	interests_sent 	271256
scalar abilene_nodelay_network.node[0].core_layer 	interests[0] 	29917
scalar abilene_nodelay_network.node[0].core_layer 	data[0] 	22749
scalar abilene_nodelay_network.node[0].core_layer 	slots_sent[face$o[1]->client[0]] 	5294583
scalar abilene_nodelay_network.node[0].core_layer 	slots_sent[face$o[2]->node[1]] 	0
scalar abilene_nodelay_network.node[0].core_layer 	slots_sent[face$o[3]->node[10]] 	0
scalar abilene_nodelay_network.node[0].content_store 	p_hit[0] 	0.23959621619815
scalar abilene_nodelay_network.node[0].content_store 	hits[0] 	7168
scalar abilene_nodelay_network.node[0].content_store 	misses[0] 	22749
scalar abilene_nodelay_network.node[0].content_store 	decision_yes[0] 	22749
scalar abilene_nodelay_network.node[0].content_store 	decision_no[0] 	0
scalar abilene_nodelay_network.node[0].content_store 	decision_ratio[0] 	1
scalar abilene_nodelay_network.node[0].content_store 	"representation_breakdown[0] 0:1:" 	0
scalar abilene_nodelay_network.node[0].proactive_component 	hdistance[0].proactive_component 	5.1306340718105
scalar abilene_nodelay_network.node[0].proactive_component 	downloads[0].proactive_component 	5236
scalar abilene_nodelay_network.node[0].proactive_component 	avg_time[0].proactive_component 	0
scalar abilene_nodelay_network.node[0].proactive_component 	interests_sent[0].proactive_component 	5236
scalar abilene_nodelay_network.node[1].core_layer 	interests[1] 	79895
scalar abilene_nodelay_network.node[1].core_layer 	data[1] 	65523
scalar abilene_nodelay_network.node[1].core_layer 	slots_sent[face$o[1]->client[1]] 	4835172
scalar abilene_nodelay_network.node[1].core_layer 	slots_sent[face$o[2]->node[0]] 	8626751
scalar abilene_nodelay_network.node[1].core_layer 	slots_sent[face$o[3]->node[10]] 	8663733
scalar abilene_nodelay_network.node[1].core_layer 	slots_sent[face$o[4]->node[2]] 	0
scalar abilene_nodelay_network.node[1].content_store 	p_hit[1] 	0.17988610050692
scalar abilene_nodelay_network.node[1].content_store 	hits[1] 	14372
scalar abilene_nodelay_network.node[1].content_store 	misses[1] 	65523
scalar abilene_nodelay_network.node[1].content_store 	decision_yes[1] 	65523
scalar abilene_nodelay_network.node[1].content_store 	decision_no[1] 	0
scalar abilene_nodelay_network.node[1].content_store 	decision_ratio[1] 	1
scalar abilene_nodelay_network.node[1].content_store 	"representation_breakdown[1] 0:1:" 	0
scalar abilene_nodelay_network.node[1].proactive_component 	hdistance[1].proactive_component 	4.4661094689634
scalar abilene_nodelay_network.node[1].proactive_component 	downloads[1].proactive_component 	9811
scalar abilene_nodelay_network.node[1].proactive_component 	avg_time[1].proactive_component 	0
scalar abilene_nodelay_network.node[1].proactive_component 	interests_sent[1].proactive_component 	9811
scalar abilene_nodelay_network.node[2].core_layer 	interests[2] 	98429
scalar abilene_nodelay_network.node[2].core_layer 	data[2] 	86902
scalar abilene_nodelay_network.node[2].core_layer 	slots_sent[face$o[1]->client[2]] 	4697160
scalar abilene_nodelay_network.node[2].core_layer 	slots_sent[face$o[2]->node[1]] 	27271306
scalar abilene_nodelay_network.node[2].core_layer 	slots_sent[face$o[3]->node[3]] 	0
scalar abilene_nodelay_network.node[2].core_layer 	slots_sent[face$o[4]->node[8]] 	0
scalar abilene_nodelay_network.node[2].content_store 	p_hit[2] 	0.11710979487753
scalar abilene_nodelay_network.node[2].content_store 	hits[2] 	11527
scalar abilene_nodelay_network.node[2].content_store 	misses[2] 	86902
scalar abilene_nodelay_network.node[2].content_store 	decision_yes[2] 	86902
scalar abilene_nodelay_network.node[2].content_store 	decision_no[2] 	0
scalar abilene_nodelay_network.node[2].content_store 	decision_ratio[2] 	1
scalar abilene_nodelay_network.node[2].content_store 	"representation_breakdown[2] 0:1:" 	0
scalar abilene_nodelay_network.node[2].proactive_component 	hdistance[2].proactive_component 	3.6942667322835
scalar abilene_nodelay_network.node[2].proactive_component 	downloads[2].proactive_component 	8128
scalar abilene_nodelay_network.node[2].proactive_component 	avg_time[2].proactive_component 	0
scalar abilene_nodelay_network.node[2].proactive_component 	interests_sent[2].proactive_component 	8128
scalar abilene_nodelay_network.node[3].core_layer 	interests[3] 	119483
scalar abilene_nodelay_network.node[3].core_layer 	data[3] 	107703
scalar abilene_nodelay_network.node[3].core_layer 	slots_sent[face$o[1]->client[3]] 	4660663
scalar abilene_nodelay_network.node[3].core_layer 	slots_sent[face$o[2]->node[2]] 	36674409
scalar abilene_nodelay_network.node[3].core_layer 	slots_sent[face$o[3]->node[4]] 	0
scalar abilene_nodelay_network.node[3].core_layer 	slots_sent[face$o[4]->node[7]] 	0
scalar abilene_nodelay_network.node[3].content_store 	p_hit[3] 	0.098591431417022
scalar abilene_nodelay_network.node[3].content_store 	hits[3] 	11780
scalar abilene_nodelay_network.node[3].content_store 	misses[3] 	107703
scalar abilene_nodelay_network.node[3].content_store 	decision_yes[3] 	107703
scalar abilene_nodelay_network.node[3].content_store 	decision_no[3] 	0
scalar abilene_nodelay_network.node[3].content_store 	decision_ratio[3] 	1
scalar abilene_nodelay_network.node[3].content_store 	"representation_breakdown[3] 0:1:" 	0
scalar abilene_nodelay_network.node[3].proactive_component 	hdistance[3].proactive_component 	2.8693126815102
scalar abilene_nodelay_network.node[3].proactive_component 	downloads[3].proactive_component 	8264
scalar abilene_nodelay_network.node[3].proactive_component 	avg_time[3].proactive_component 	0
scalar abilene_nodelay_network.node[3].proactive_component 	interests_sent[3].proactive_component 	8264
scalar abilene_nodelay_network.node[4].core_layer 	interests[4] 	140961
scalar abilene_nodelay_network.node[4].core_layer 	data[4] 	128947
scalar abilene_nodelay_network.node[4].core_layer 	slots_sent[face$o[1]->client[4]] 	4583958
scalar abilene_nodelay_network.node[4].core_layer 	slots_sent[face$o[2]->node[3]] 	46049588
scalar abilene_nodelay_network.node[4].core_layer 	slots_sent[face$o[3]->node[5]] 	0
scalar abilene_nodelay_network.node[4].content_store 	p_hit[4] 	0.085229247806131
scalar abilene_nodelay_network.node[4].content_store 	hits[4] 	12014
scalar abilene_nodelay_network.node[4].content_store 	misses[4] 	128947
scalar abilene_nodelay_network.node[4].content_store 	decision_yes[4] 	128947
scalar abilene_nodelay_network.node[4].content_store 	decision_no[4] 	0
scalar abilene_nodelay_network.node[4].content_store 	decision_ratio[4] 	1
scalar abilene_nodelay_network.node[4].content_store 	"representation_breakdown[4] 0:1:" 	0
scalar abilene_nodelay_network.node[4].proactive_component 	hdistance[4].proactive_component 	2
scalar abilene_nodelay_network.node[4].proactive_component 	downloads[4].proactive_component 	8481
scalar abilene_nodelay_network.node[4].proactive_component 	avg_time[4].proactive_component 	0
scalar abilene_nodelay_network.node[4].proactive_component 	interests_sent[4].proactive_component 	8481
scalar abilene_nodelay_network.node[5].core_layer 	interests[5] 	241144
scalar abilene_nodelay_network.node[5].core_layer 	repo_load[5] 	241144
scalar abilene_nodelay_network.node[5].core_layer 	data[5] 	0
scalar abilene_nodelay_network.node[5].core_layer 	slots_sent[face$o[1]->client[5]] 	2467800
scalar abilene_nodelay_network.node[5].core_layer 	slots_sent[face$o[2]->node[4]] 	55559762
scalar abilene_nodelay_network.node[5].core_layer 	slots_sent[face$o[3]->node[6]] 	36732908
scalar abilene_nodelay_network.node[5].content_store 	p_hit[5] 	0
scalar abilene_nodelay_network.node[5].content_store 	hits[5] 	0
scalar abilene_nodelay_network.node[5].content_store 	misses[5] 	241144
scalar abilene_nodelay_network.node[5].content_store 	decision_yes[5] 	0
scalar abilene_nodelay_network.node[5].content_store 	decision_no[5] 	241144
scalar abilene_nodelay_network.node[5].content_store 	decision_ratio[5] 	0
scalar abilene_nodelay_network.node[5].content_store 	"representation_breakdown[5] 0:0:" 	0
scalar abilene_nodelay_network.node[6].core_layer 	interests[6] 	99195
scalar abilene_nodelay_network.node[6].core_layer 	data[6] 	87519
scalar abilene_nodelay_network.node[6].core_layer 	slots_sent[face$o[1]->client[6]] 	4513072
scalar abilene_nodelay_network.node[6].core_layer 	slots_sent[face$o[2]->node[5]] 	0
scalar abilene_nodelay_network.node[6].core_layer 	slots_sent[face$o[3]->node[7]] 	27265550
scalar abilene_nodelay_network.node[6].content_store 	p_hit[6] 	0.11770754574323
scalar abilene_nodelay_network.node[6].content_store 	hits[6] 	11676
scalar abilene_nodelay_network.node[6].content_store 	misses[6] 	87519
scalar abilene_nodelay_network.node[6].content_store 	decision_yes[6] 	87519
scalar abilene_nodelay_network.node[6].content_store 	decision_no[6] 	0
scalar abilene_nodelay_network.node[6].content_store 	decision_ratio[6] 	1
scalar abilene_nodelay_network.node[6].content_store 	"representation_breakdown[6] 2:0:" 	0
scalar abilene_nodelay_network.node[6].proactive_component 	hdistance[6].proactive_component 	2
scalar abilene_nodelay_network.node[6].proactive_component 	downloads[6].proactive_component 	8317
scalar abilene_nodelay_network.node[6].proactive_component 	avg_time[6].proactive_component 	0
scalar abilene_nodelay_network.node[6].proactive_component 	interests_sent[6].proactive_component 	8317
scalar abilene_nodelay_network.node[7].core_layer 	interests[7] 	77255
scalar abilene_nodelay_network.node[7].core_layer 	data[7] 	66191
scalar abilene_nodelay_network.node[7].core_layer 	slots_sent[face$o[1]->client[7]] 	4570528
scalar abilene_nodelay_network.node[7].core_layer 	slots_sent[face$o[2]->node[3]] 	0
scalar abilene_nodelay_network.node[7].core_layer 	slots_sent[face$o[3]->node[6]] 	0
scalar abilene_nodelay_network.node[7].core_layer 	slots_sent[face$o[4]->node[8]] 	17922366
scalar abilene_nodelay_network.node[7].content_store 	p_hit[7] 	0.14321403145427
scalar abilene_nodelay_network.node[7].content_store 	hits[7] 	11064
scalar abilene_nodelay_network.node[7].content_store 	misses[7] 	66191
scalar abilene_nodelay_network.node[7].content_store 	decision_yes[7] 	66191
scalar abilene_nodelay_network.node[7].content_store 	decision_no[7] 	0
scalar abilene_nodelay_network.node[7].content_store 	decision_ratio[7] 	1
scalar abilene_nodelay_network.node[7].content_store 	"representation_breakdown[7] 2:0:" 	0
scalar abilene_nodelay_network.node[7].proactive_component 	hdistance[7].proactive_component 	2.8279434057605
scalar abilene_nodelay_network.node[7].proactive_component 	downloads[7].proactive_component 	7916
scalar abilene_nodelay_network.node[7].proactive_component 	avg_time[7].proactive_component 	0
scalar abilene_nodelay_network.node[7].proactive_component 	interests_sent[7].proactive_component 	7916
scalar abilene_nodelay_network.node[8].core_layer 	interests[8] 	55130
scalar abilene_nodelay_network.node[8].core_layer 	data[8] 	44803
scalar abilene_nodelay_network.node[8].core_layer 	slots_sent[face$o[1]->client[8]] 	4848338
scalar abilene_nodelay_network.node[8].core_layer 	slots_sent[face$o[2]->node[2]] 	0
scalar abilene_nodelay_network.node[8].core_layer 	slots_sent[face$o[3]->node[7]] 	0
scalar abilene_nodelay_network.node[8].core_layer 	slots_sent[face$o[4]->node[9]] 	8614143
scalar abilene_nodelay_network.node[8].content_store 	p_hit[8] 	0.1873208779249
scalar abilene_nodelay_network.node[8].content_store 	hits[8] 	10327
scalar abilene_nodelay_network.node[8].content_store 	misses[8] 	44803
scalar abilene_nodelay_network.node[8].content_store 	decision_yes[8] 	44803
scalar abilene_nodelay_network.node[8].content_store 	decision_no[8] 	0
scalar abilene_nodelay_network.node[8].content_store 	decision_ratio[8] 	1
scalar abilene_nodelay_network.node[8].content_store 	"representation_breakdown[8] 0:1:" 	0
scalar abilene_nodelay_network.node[8].proactive_component 	hdistance[8].proactive_component 	3.6057367068056
scalar abilene_nodelay_network.node[8].proactive_component 	downloads[8].proactive_component 	7391
scalar abilene_nodelay_network.node[8].proactive_component 	avg_time[8].proactive_component 	0
scalar abilene_nodelay_network.node[8].proactive_component 	interests_sent[8].proactive_component 	7391
scalar abilene_nodelay_network.node[9].core_layer 	interests[9] 	30200
scalar abilene_nodelay_network.node[9].core_layer 	data[9] 	22879
scalar abilene_nodelay_network.node[9].core_layer 	slots_sent[face$o[1]->client[9]] 	5020428
scalar abilene_nodelay_network.node[9].core_layer 	slots_sent[face$o[2]->node[10]] 	0
scalar abilene_nodelay_network.node[9].core_layer 	slots_sent[face$o[3]->node[8]] 	0
scalar abilene_nodelay_network.node[9].content_store 	p_hit[9] 	0.24241721854305
scalar abilene_nodelay_network.node[9].content_store 	hits[9] 	7321
scalar abilene_nodelay_network.node[9].content_store 	misses[9] 	22879
scalar abilene_nodelay_network.node[9].content_store 	decision_yes[9] 	22879
scalar abilene_nodelay_network.node[9].content_store 	decision_no[9] 	0
scalar abilene_nodelay_network.node[9].content_store 	decision_ratio[9] 	1
scalar abilene_nodelay_network.node[9].content_store 	"representation_breakdown[9] 0:1:" 	0
scalar abilene_nodelay_network.node[9].proactive_component 	hdistance[9].proactive_component 	4.3337014540769
scalar abilene_nodelay_network.node[9].proactive_component 	downloads[9].proactive_component 	5433
scalar abilene_nodelay_network.node[9].proactive_component 	avg_time[9].proactive_component 	0
scalar abilene_nodelay_network.node[9].proactive_component 	interests_sent[9].proactive_component 	5433
scalar abilene_nodelay_network.node[10].core_layer 	interests[10] 	29737
scalar abilene_nodelay_network.node[10].core_layer 	data[10] 	22628
scalar abilene_nodelay_network.node[10].core_layer 	slots_sent[face$o[1]->client[10]] 	5188990
scalar abilene_nodelay_network.node[10].core_layer 	slots_sent[face$o[2]->node[0]] 	0
scalar abilene_nodelay_network.node[10].core_layer 	slots_sent[face$o[3]->node[1]] 	0
scalar abilene_nodelay_network.node[10].core_layer 	slots_sent[face$o[4]->node[9]] 	0
scalar abilene_nodelay_network.node[10].content_store 	p_hit[10] 	0.23906244745603
scalar abilene_nodelay_network.node[10].content_store 	hits[10] 	7109
scalar abilene_nodelay_network.node[10].content_store 	misses[10] 	22628
scalar abilene_nodelay_network.node[10].content_store 	decision_yes[10] 	22628
scalar abilene_nodelay_network.node[10].content_store 	decision_no[10] 	0
scalar abilene_nodelay_network.node[10].content_store 	decision_ratio[10] 	1
scalar abilene_nodelay_network.node[10].content_store 	"representation_breakdown[10] 0:1:" 	0
scalar abilene_nodelay_network.node[10].proactive_component 	hdistance[10].proactive_component 	5.1169102296451
scalar abilene_nodelay_network.node[10].proactive_component 	downloads[10].proactive_component 	5269
scalar abilene_nodelay_network.node[10].proactive_component 	avg_time[10].proactive_component 	0
scalar abilene_nodelay_network.node[10].proactive_component 	interests_sent[10].proactive_component 	5269
scalar abilene_nodelay_network.client[0] 	hdistance[0].real 	3.2896965276934
scalar abilene_nodelay_network.client[0] 	downloads[0].real 	24681
scalar abilene_nodelay_network.client[0] 	avg_time[0].real 	0
scalar abilene_nodelay_network.client[0] 	interests_sent[0].real 	24681
scalar abilene_nodelay_network.client[1] 	hdistance[1].real 	3.1808394382159
scalar abilene_nodelay_network.client[1] 	downloads[1].real 	24707
scalar abilene_nodelay_network.client[1] 	avg_time[1].real 	0
scalar abilene_nodelay_network.client[1] 	interests_sent[1].real 	24707
scalar abilene_nodelay_network.client[2] 	hdistance[2].real 	2.7030833804181
scalar abilene_nodelay_network.client[2] 	downloads[2].real 	24778
scalar abilene_nodelay_network.client[2] 	avg_time[2].real 	0
scalar abilene_nodelay_network.client[2] 	interests_sent[2].real 	24778
scalar abilene_nodelay_network.client[3] 	hdistance[3].real 	2.0948719003167
scalar abilene_nodelay_network.client[3] 	downloads[3].real 	24317
scalar abilene_nodelay_network.client[3] 	avg_time[3].real 	0
scalar abilene_nodelay_network.client[3] 	interests_sent[3].real 	24317
scalar abilene_nodelay_network.client[4] 	hdistance[4].real 	1.4733825725471
scalar abilene_nodelay_network.client[4] 	downloads[4].real 	24777
scalar abilene_nodelay_network.client[4] 	avg_time[4].real 	0
scalar abilene_nodelay_network.client[4] 	interests_sent[4].real 	24777
scalar abilene_nodelay_network.client[5] 	hdistance[5].real 	1
scalar abilene_nodelay_network.client[5] 	downloads[5].real 	24678
scalar abilene_nodelay_network.client[5] 	avg_time[5].real 	0
scalar abilene_nodelay_network.client[5] 	interests_sent[5].real 	24678
scalar abilene_nodelay_network.client[6] 	hdistance[6].real 	1.461822011585
scalar abilene_nodelay_network.client[6] 	downloads[6].real 	24687
scalar abilene_nodelay_network.client[6] 	avg_time[6].real 	0
scalar abilene_nodelay_network.client[6] 	interests_sent[6].real 	24687
scalar abilene_nodelay_network.client[7] 	hdistance[7].real 	2.0544120643978
scalar abilene_nodelay_network.client[7] 	downloads[7].real 	24535
scalar abilene_nodelay_network.client[7] 	avg_time[7].real 	0
scalar abilene_nodelay_network.client[7] 	interests_sent[7].real 	24536
scalar abilene_nodelay_network.client[8] 	hdistance[8].real 	2.5339501206758
scalar abilene_nodelay_network.client[8] 	downloads[8].real 	24860
scalar abilene_nodelay_network.client[8] 	avg_time[8].real 	0
scalar abilene_nodelay_network.client[8] 	interests_sent[8].real 	24860
scalar abilene_nodelay_network.client[9] 	hdistance[9].real 	2.8346590220858
scalar abilene_nodelay_network.client[9] 	downloads[9].real 	24767
scalar abilene_nodelay_network.client[9] 	avg_time[9].real 	0
scalar abilene_nodelay_network.client[9] 	interests_sent[9].real 	24767
scalar abilene_nodelay_network.client[10] 	hdistance[10].real 	3.3043158410986
scalar abilene_nodelay_network.client[10] 	downloads[10].real 	24468
scalar abilene_nodelay_network.client[10] 	avg_time[10].real 	0
scalar abilene_nodelay_network.client[10] 	interests_sent[10].real 	24468
