version 2
run General-4-20150724-11:05:40-27623
attr C 1e4
attr D lce
attr F spr
attr R partitionedn
attr a 1
attr brates 0.3_0.7_1.5_2.5_3.5
attr configname General
attr ctlg 1e6
attr datetime 20150724-11:05:40
attr experiment General
attr inifile omnetpp.ini
attr iterationvars "$net=barabasi_100nodes, $rep=4, $lambda=100, $a=1, $ctlg=1e6, $brates=0.3_0.7_1.5_2.5_3.5, $F=spr, $ttl=1000, $D=lce, $R=partitionedn, $C=1e4, $window=60, $variance=0.05, $mytime=1800"
attr iterationvars2 "$net=barabasi_100nodes, $rep=4, $lambda=100, $a=1, $ctlg=1e6, $brates=0.3_0.7_1.5_2.5_3.5, $F=spr, $ttl=1000, $D=lce, $R=partitionedn, $C=1e4, $window=60, $variance=0.05, $mytime=1800, $repetition=0"
attr lambda 100
attr measurement "$net=barabasi_100nodes, $rep=4, $lambda=100, $a=1, $ctlg=1e6, $brates=0.3_0.7_1.5_2.5_3.5, $F=spr, $ttl=1000, $D=lce, $R=partitionedn, $C=1e4, $window=60, $variance=0.05, $mytime=1800"
attr mytime 1800
attr net barabasi_100nodes
attr network networks.${net=barabasi_100nodes}_network
attr processid 27623
attr rep 4
attr repetition 0
attr replication #0
attr resultdir results
attr runnumber 4
attr seedset 4
attr ttl 1000
attr variance 0.05
attr window 60

scalar . 	C 	1e4
scalar . 	a 	1
scalar . 	ctlg 	1e6
scalar . 	lambda 	100
scalar . 	mytime 	1800
scalar . 	rep 	4
scalar . 	ttl 	1000
scalar . 	variance 	0.05
scalar . 	window 	60
scalar barabasi_100nodes_network.content_distribution 	repo-0 	82
scalar barabasi_100nodes_network.content_distribution 	repo-1 	48
scalar barabasi_100nodes_network.content_distribution 	repo-2 	74
scalar barabasi_100nodes_network.content_distribution 	repo-3 	16
scalar barabasi_100nodes_network.content_distribution 	repo-4 	98
scalar barabasi_100nodes_network.content_distribution 	repo-5 	25
scalar barabasi_100nodes_network.content_distribution 	repo-6 	58
scalar barabasi_100nodes_network.content_distribution 	repo-7 	99
scalar barabasi_100nodes_network.content_distribution 	repo-8 	26
scalar barabasi_100nodes_network.content_distribution 	repo-9 	66
scalar barabasi_100nodes_network.content_distribution 	repo-10 	46
scalar barabasi_100nodes_network.content_distribution 	repo-11 	54
scalar barabasi_100nodes_network.content_distribution 	repo-12 	77
scalar barabasi_100nodes_network.content_distribution 	repo-13 	73
scalar barabasi_100nodes_network.content_distribution 	repo-14 	75
scalar barabasi_100nodes_network.content_distribution 	repo-15 	52
scalar barabasi_100nodes_network.content_distribution 	repo-16 	2
scalar barabasi_100nodes_network.content_distribution 	repo-17 	32
scalar barabasi_100nodes_network.content_distribution 	repo-18 	19
scalar barabasi_100nodes_network.content_distribution 	repo-19 	21
scalar barabasi_100nodes_network.content_distribution 	repo-20 	11
scalar barabasi_100nodes_network.content_distribution 	repo-21 	86
scalar barabasi_100nodes_network.content_distribution 	repo-22 	1
scalar barabasi_100nodes_network.content_distribution 	repo-23 	18
scalar barabasi_100nodes_network.content_distribution 	repo-24 	24
scalar barabasi_100nodes_network.content_distribution 	repo-25 	28
scalar barabasi_100nodes_network.content_distribution 	repo-26 	40
scalar barabasi_100nodes_network.content_distribution 	repo-27 	76
scalar barabasi_100nodes_network.content_distribution 	repo-28 	22
scalar barabasi_100nodes_network.content_distribution 	repo-29 	34
scalar barabasi_100nodes_network.content_distribution 	repo-30 	5
scalar barabasi_100nodes_network.content_distribution 	repo-31 	51
scalar barabasi_100nodes_network.content_distribution 	repo-32 	88
scalar barabasi_100nodes_network.content_distribution 	repo-33 	85
scalar barabasi_100nodes_network.content_distribution 	repo-34 	49
scalar barabasi_100nodes_network.content_distribution 	repo-35 	45
scalar barabasi_100nodes_network.content_distribution 	repo-36 	71
scalar barabasi_100nodes_network.content_distribution 	repo-37 	7
scalar barabasi_100nodes_network.content_distribution 	repo-38 	6
scalar barabasi_100nodes_network.content_distribution 	repo-39 	79
scalar barabasi_100nodes_network.content_distribution 	repo-40 	38
scalar barabasi_100nodes_network.content_distribution 	repo-41 	83
scalar barabasi_100nodes_network.content_distribution 	repo-42 	10
scalar barabasi_100nodes_network.content_distribution 	repo-43 	61
scalar barabasi_100nodes_network.content_distribution 	repo-44 	62
scalar barabasi_100nodes_network.content_distribution 	repo-45 	36
scalar barabasi_100nodes_network.content_distribution 	repo-46 	94
scalar barabasi_100nodes_network.content_distribution 	repo-47 	0
scalar barabasi_100nodes_network.content_distribution 	repo-48 	47
scalar barabasi_100nodes_network.content_distribution 	repo-49 	89
scalar barabasi_100nodes_network.content_distribution 	repo-50 	41
scalar barabasi_100nodes_network.content_distribution 	repo-51 	81
scalar barabasi_100nodes_network.content_distribution 	repo-52 	59
scalar barabasi_100nodes_network.content_distribution 	repo-53 	72
scalar barabasi_100nodes_network.content_distribution 	repo-54 	37
scalar barabasi_100nodes_network.content_distribution 	repo-55 	13
scalar barabasi_100nodes_network.content_distribution 	repo-56 	65
scalar barabasi_100nodes_network.content_distribution 	repo-57 	53
scalar barabasi_100nodes_network.content_distribution 	repo-58 	97
scalar barabasi_100nodes_network.content_distribution 	repo-59 	67
scalar barabasi_100nodes_network.content_distribution 	repo-60 	57
scalar barabasi_100nodes_network.content_distribution 	repo-61 	50
scalar barabasi_100nodes_network.content_distribution 	repo-62 	35
scalar barabasi_100nodes_network.content_distribution 	repo-63 	20
scalar barabasi_100nodes_network.content_distribution 	repo-64 	60
scalar barabasi_100nodes_network.content_distribution 	repo-65 	4
scalar barabasi_100nodes_network.content_distribution 	repo-66 	91
scalar barabasi_100nodes_network.content_distribution 	repo-67 	43
scalar barabasi_100nodes_network.content_distribution 	repo-68 	3
scalar barabasi_100nodes_network.content_distribution 	repo-69 	29
scalar barabasi_100nodes_network.content_distribution 	repo-70 	9
scalar barabasi_100nodes_network.content_distribution 	repo-71 	39
scalar barabasi_100nodes_network.content_distribution 	repo-72 	63
scalar barabasi_100nodes_network.content_distribution 	repo-73 	55
scalar barabasi_100nodes_network.content_distribution 	repo-74 	56
scalar barabasi_100nodes_network.content_distribution 	repo-75 	87
scalar barabasi_100nodes_network.content_distribution 	repo-76 	27
scalar barabasi_100nodes_network.content_distribution 	repo-77 	95
scalar barabasi_100nodes_network.content_distribution 	repo-78 	31
scalar barabasi_100nodes_network.content_distribution 	repo-79 	80
scalar barabasi_100nodes_network.content_distribution 	repo-80 	14
scalar barabasi_100nodes_network.content_distribution 	repo-81 	8
scalar barabasi_100nodes_network.content_distribution 	repo-82 	69
scalar barabasi_100nodes_network.content_distribution 	repo-83 	44
scalar barabasi_100nodes_network.content_distribution 	repo-84 	96
scalar barabasi_100nodes_network.content_distribution 	repo-85 	17
scalar barabasi_100nodes_network.content_distribution 	repo-86 	15
scalar barabasi_100nodes_network.content_distribution 	repo-87 	78
scalar barabasi_100nodes_network.content_distribution 	repo-88 	93
scalar barabasi_100nodes_network.content_distribution 	repo-89 	42
scalar barabasi_100nodes_network.content_distribution 	repo-90 	64
scalar barabasi_100nodes_network.content_distribution 	repo-91 	84
scalar barabasi_100nodes_network.content_distribution 	repo-92 	33
scalar barabasi_100nodes_network.content_distribution 	repo-93 	70
scalar barabasi_100nodes_network.content_distribution 	repo-94 	92
scalar barabasi_100nodes_network.content_distribution 	repo-95 	23
scalar barabasi_100nodes_network.content_distribution 	repo-96 	68
scalar barabasi_100nodes_network.content_distribution 	repo-97 	90
scalar barabasi_100nodes_network.content_distribution 	repo-98 	30
scalar barabasi_100nodes_network.content_distribution 	repo-99 	12
scalar barabasi_100nodes_network.content_distribution 	client-0 	66
scalar barabasi_100nodes_network.content_distribution 	client-1 	63
scalar barabasi_100nodes_network.content_distribution 	client-2 	51
scalar barabasi_100nodes_network.content_distribution 	client-3 	44
scalar barabasi_100nodes_network.content_distribution 	client-4 	78
scalar barabasi_100nodes_network.content_distribution 	client-5 	90
scalar barabasi_100nodes_network.content_distribution 	client-6 	52
scalar barabasi_100nodes_network.content_distribution 	client-7 	18
scalar barabasi_100nodes_network.content_distribution 	client-8 	69
scalar barabasi_100nodes_network.content_distribution 	client-9 	88
scalar barabasi_100nodes_network.content_distribution 	client-10 	30
scalar barabasi_100nodes_network.content_distribution 	client-11 	53
scalar barabasi_100nodes_network.content_distribution 	client-12 	73
scalar barabasi_100nodes_network.content_distribution 	client-13 	28
scalar barabasi_100nodes_network.content_distribution 	client-14 	89
scalar barabasi_100nodes_network.content_distribution 	client-15 	46
scalar barabasi_100nodes_network.content_distribution 	client-16 	40
scalar barabasi_100nodes_network.content_distribution 	client-17 	94
scalar barabasi_100nodes_network.content_distribution 	client-18 	87
scalar barabasi_100nodes_network.content_distribution 	client-19 	39
scalar barabasi_100nodes_network.content_distribution 	client-20 	82
scalar barabasi_100nodes_network.content_distribution 	client-21 	35
scalar barabasi_100nodes_network.content_distribution 	client-22 	84
scalar barabasi_100nodes_network.content_distribution 	client-23 	54
scalar barabasi_100nodes_network.content_distribution 	client-24 	20
scalar barabasi_100nodes_network.content_distribution 	client-25 	5
scalar barabasi_100nodes_network.content_distribution 	client-26 	4
scalar barabasi_100nodes_network.content_distribution 	client-27 	43
scalar barabasi_100nodes_network.content_distribution 	client-28 	1
scalar barabasi_100nodes_network.content_distribution 	client-29 	49
scalar barabasi_100nodes_network.content_distribution 	client-30 	15
scalar barabasi_100nodes_network.content_distribution 	client-31 	12
scalar barabasi_100nodes_network.content_distribution 	client-32 	86
scalar barabasi_100nodes_network.content_distribution 	client-33 	24
scalar barabasi_100nodes_network.content_distribution 	client-34 	19
scalar barabasi_100nodes_network.content_distribution 	client-35 	16
scalar barabasi_100nodes_network.content_distribution 	client-36 	38
scalar barabasi_100nodes_network.content_distribution 	client-37 	62
scalar barabasi_100nodes_network.content_distribution 	client-38 	57
scalar barabasi_100nodes_network.content_distribution 	client-39 	95
scalar barabasi_100nodes_network.content_distribution 	client-40 	2
scalar barabasi_100nodes_network.content_distribution 	client-41 	68
scalar barabasi_100nodes_network.content_distribution 	client-42 	6
scalar barabasi_100nodes_network.content_distribution 	client-43 	55
scalar barabasi_100nodes_network.content_distribution 	client-44 	80
scalar barabasi_100nodes_network.content_distribution 	client-45 	72
scalar barabasi_100nodes_network.content_distribution 	client-46 	41
scalar barabasi_100nodes_network.content_distribution 	client-47 	14
scalar barabasi_100nodes_network.content_distribution 	client-48 	96
scalar barabasi_100nodes_network.content_distribution 	client-49 	59
scalar barabasi_100nodes_network.content_distribution 	client-50 	21
scalar barabasi_100nodes_network.content_distribution 	client-51 	67
scalar barabasi_100nodes_network.content_distribution 	client-52 	27
scalar barabasi_100nodes_network.content_distribution 	client-53 	32
scalar barabasi_100nodes_network.content_distribution 	client-54 	37
scalar barabasi_100nodes_network.content_distribution 	client-55 	23
scalar barabasi_100nodes_network.content_distribution 	client-56 	79
scalar barabasi_100nodes_network.content_distribution 	client-57 	34
scalar barabasi_100nodes_network.content_distribution 	client-58 	92
scalar barabasi_100nodes_network.content_distribution 	client-59 	42
scalar barabasi_100nodes_network.content_distribution 	client-60 	11
scalar barabasi_100nodes_network.content_distribution 	client-61 	65
scalar barabasi_100nodes_network.content_distribution 	client-62 	97
scalar barabasi_100nodes_network.content_distribution 	client-63 	50
scalar barabasi_100nodes_network.content_distribution 	client-64 	83
scalar barabasi_100nodes_network.content_distribution 	client-65 	60
scalar barabasi_100nodes_network.content_distribution 	client-66 	36
scalar barabasi_100nodes_network.content_distribution 	client-67 	71
scalar barabasi_100nodes_network.content_distribution 	client-68 	74
scalar barabasi_100nodes_network.content_distribution 	client-69 	45
scalar barabasi_100nodes_network.content_distribution 	client-70 	99
scalar barabasi_100nodes_network.content_distribution 	client-71 	76
scalar barabasi_100nodes_network.content_distribution 	client-72 	22
scalar barabasi_100nodes_network.content_distribution 	client-73 	7
scalar barabasi_100nodes_network.content_distribution 	client-74 	58
scalar barabasi_100nodes_network.content_distribution 	client-75 	93
scalar barabasi_100nodes_network.content_distribution 	client-76 	75
scalar barabasi_100nodes_network.content_distribution 	client-77 	8
scalar barabasi_100nodes_network.content_distribution 	client-78 	47
scalar barabasi_100nodes_network.content_distribution 	client-79 	98
scalar barabasi_100nodes_network.content_distribution 	client-80 	91
scalar barabasi_100nodes_network.content_distribution 	client-81 	33
scalar barabasi_100nodes_network.content_distribution 	client-82 	81
scalar barabasi_100nodes_network.content_distribution 	client-83 	25
scalar barabasi_100nodes_network.content_distribution 	client-84 	70
scalar barabasi_100nodes_network.content_distribution 	client-85 	9
scalar barabasi_100nodes_network.content_distribution 	client-86 	64
scalar barabasi_100nodes_network.content_distribution 	client-87 	26
scalar barabasi_100nodes_network.content_distribution 	client-88 	13
scalar barabasi_100nodes_network.content_distribution 	client-89 	3
scalar barabasi_100nodes_network.content_distribution 	client-90 	48
scalar barabasi_100nodes_network.content_distribution 	client-91 	61
scalar barabasi_100nodes_network.content_distribution 	client-92 	77
scalar barabasi_100nodes_network.content_distribution 	client-93 	29
scalar barabasi_100nodes_network.content_distribution 	client-94 	17
scalar barabasi_100nodes_network.content_distribution 	client-95 	56
scalar barabasi_100nodes_network.content_distribution 	client-96 	31
scalar barabasi_100nodes_network.content_distribution 	client-97 	10
scalar barabasi_100nodes_network.content_distribution 	client-98 	0
scalar barabasi_100nodes_network.content_distribution 	client-99 	85
scalar barabasi_100nodes_network.content_distribution 	repo-0_card 	249422
scalar barabasi_100nodes_network.content_distribution 	repo-0_price 	0
scalar barabasi_100nodes_network.content_distribution 	repo-1_card 	250186
scalar barabasi_100nodes_network.content_distribution 	repo-1_price 	0
scalar barabasi_100nodes_network.content_distribution 	repo-2_card 	250640
scalar barabasi_100nodes_network.content_distribution 	repo-2_price 	0
scalar barabasi_100nodes_network.content_distribution 	repo-3_card 	249752
scalar barabasi_100nodes_network.content_distribution 	repo-3_price 	0
scalar barabasi_100nodes_network.content_distribution 	repo-4_card 	0
scalar barabasi_100nodes_network.content_distribution 	repo-4_price 	0
scalar barabasi_100nodes_network.content_distribution 	repo-5_card 	0
scalar barabasi_100nodes_network.content_distribution 	repo-5_price 	0
scalar barabasi_100nodes_network.content_distribution 	repo-6_card 	0
scalar barabasi_100nodes_network.content_distribution 	repo-6_price 	0
scalar barabasi_100nodes_network.content_distribution 	repo-7_card 	0
scalar barabasi_100nodes_network.content_distribution 	repo-7_price 	0
scalar barabasi_100nodes_network.content_distribution 	repo-8_card 	0
scalar barabasi_100nodes_network.content_distribution 	repo-8_price 	0
scalar barabasi_100nodes_network.content_distribution 	repo-9_card 	0
scalar barabasi_100nodes_network.content_distribution 	repo-9_price 	0
scalar barabasi_100nodes_network.content_distribution 	repo-10_card 	0
scalar barabasi_100nodes_network.content_distribution 	repo-10_price 	0
scalar barabasi_100nodes_network.content_distribution 	repo-11_card 	0
scalar barabasi_100nodes_network.content_distribution 	repo-11_price 	0
scalar barabasi_100nodes_network.content_distribution 	repo-12_card 	0
scalar barabasi_100nodes_network.content_distribution 	repo-12_price 	0
scalar barabasi_100nodes_network.content_distribution 	repo-13_card 	0
scalar barabasi_100nodes_network.content_distribution 	repo-13_price 	0
scalar barabasi_100nodes_network.content_distribution 	repo-14_card 	0
scalar barabasi_100nodes_network.content_distribution 	repo-14_price 	0
scalar barabasi_100nodes_network.content_distribution 	repo-15_card 	0
scalar barabasi_100nodes_network.content_distribution 	repo-15_price 	0
scalar barabasi_100nodes_network.content_distribution 	repo-16_card 	0
scalar barabasi_100nodes_network.content_distribution 	repo-16_price 	0
scalar barabasi_100nodes_network.content_distribution 	repo-17_card 	0
scalar barabasi_100nodes_network.content_distribution 	repo-17_price 	0
scalar barabasi_100nodes_network.content_distribution 	repo-18_card 	0
scalar barabasi_100nodes_network.content_distribution 	repo-18_price 	0
scalar barabasi_100nodes_network.content_distribution 	repo-19_card 	0
scalar barabasi_100nodes_network.content_distribution 	repo-19_price 	0
scalar barabasi_100nodes_network.content_distribution 	repo-20_card 	0
scalar barabasi_100nodes_network.content_distribution 	repo-20_price 	0
scalar barabasi_100nodes_network.content_distribution 	repo-21_card 	0
scalar barabasi_100nodes_network.content_distribution 	repo-21_price 	0
scalar barabasi_100nodes_network.content_distribution 	repo-22_card 	0
scalar barabasi_100nodes_network.content_distribution 	repo-22_price 	0
scalar barabasi_100nodes_network.content_distribution 	repo-23_card 	0
scalar barabasi_100nodes_network.content_distribution 	repo-23_price 	0
scalar barabasi_100nodes_network.content_distribution 	repo-24_card 	0
scalar barabasi_100nodes_network.content_distribution 	repo-24_price 	0
scalar barabasi_100nodes_network.content_distribution 	repo-25_card 	0
scalar barabasi_100nodes_network.content_distribution 	repo-25_price 	0
scalar barabasi_100nodes_network.content_distribution 	repo-26_card 	0
scalar barabasi_100nodes_network.content_distribution 	repo-26_price 	0
scalar barabasi_100nodes_network.content_distribution 	repo-27_card 	0
scalar barabasi_100nodes_network.content_distribution 	repo-27_price 	0
scalar barabasi_100nodes_network.content_distribution 	repo-28_card 	0
scalar barabasi_100nodes_network.content_distribution 	repo-28_price 	0
scalar barabasi_100nodes_network.content_distribution 	repo-29_card 	0
scalar barabasi_100nodes_network.content_distribution 	repo-29_price 	0
scalar barabasi_100nodes_network.content_distribution 	repo-30_card 	0
scalar barabasi_100nodes_network.content_distribution 	repo-30_price 	0
scalar barabasi_100nodes_network.content_distribution 	repo-31_card 	0
scalar barabasi_100nodes_network.content_distribution 	repo-31_price 	0
scalar barabasi_100nodes_network.content_distribution 	repo-32_card 	0
scalar barabasi_100nodes_network.content_distribution 	repo-32_price 	0
scalar barabasi_100nodes_network.content_distribution 	repo-33_card 	0
scalar barabasi_100nodes_network.content_distribution 	repo-33_price 	0
scalar barabasi_100nodes_network.content_distribution 	repo-34_card 	0
scalar barabasi_100nodes_network.content_distribution 	repo-34_price 	0
scalar barabasi_100nodes_network.content_distribution 	repo-35_card 	0
scalar barabasi_100nodes_network.content_distribution 	repo-35_price 	0
scalar barabasi_100nodes_network.content_distribution 	repo-36_card 	0
scalar barabasi_100nodes_network.content_distribution 	repo-36_price 	0
scalar barabasi_100nodes_network.content_distribution 	repo-37_card 	0
scalar barabasi_100nodes_network.content_distribution 	repo-37_price 	0
scalar barabasi_100nodes_network.content_distribution 	repo-38_card 	0
scalar barabasi_100nodes_network.content_distribution 	repo-38_price 	0
scalar barabasi_100nodes_network.content_distribution 	repo-39_card 	0
scalar barabasi_100nodes_network.content_distribution 	repo-39_price 	0
scalar barabasi_100nodes_network.content_distribution 	repo-40_card 	0
scalar barabasi_100nodes_network.content_distribution 	repo-40_price 	0
scalar barabasi_100nodes_network.content_distribution 	repo-41_card 	0
scalar barabasi_100nodes_network.content_distribution 	repo-41_price 	0
scalar barabasi_100nodes_network.content_distribution 	repo-42_card 	0
scalar barabasi_100nodes_network.content_distribution 	repo-42_price 	0
scalar barabasi_100nodes_network.content_distribution 	repo-43_card 	0
scalar barabasi_100nodes_network.content_distribution 	repo-43_price 	0
scalar barabasi_100nodes_network.content_distribution 	repo-44_card 	0
scalar barabasi_100nodes_network.content_distribution 	repo-44_price 	0
scalar barabasi_100nodes_network.content_distribution 	repo-45_card 	0
scalar barabasi_100nodes_network.content_distribution 	repo-45_price 	0
scalar barabasi_100nodes_network.content_distribution 	repo-46_card 	0
scalar barabasi_100nodes_network.content_distribution 	repo-46_price 	0
scalar barabasi_100nodes_network.content_distribution 	repo-47_card 	0
scalar barabasi_100nodes_network.content_distribution 	repo-47_price 	0
scalar barabasi_100nodes_network.content_distribution 	repo-48_card 	0
scalar barabasi_100nodes_network.content_distribution 	repo-48_price 	0
scalar barabasi_100nodes_network.content_distribution 	repo-49_card 	0
scalar barabasi_100nodes_network.content_distribution 	repo-49_price 	0
scalar barabasi_100nodes_network.content_distribution 	repo-50_card 	0
scalar barabasi_100nodes_network.content_distribution 	repo-50_price 	0
scalar barabasi_100nodes_network.content_distribution 	repo-51_card 	0
scalar barabasi_100nodes_network.content_distribution 	repo-51_price 	0
scalar barabasi_100nodes_network.content_distribution 	repo-52_card 	0
scalar barabasi_100nodes_network.content_distribution 	repo-52_price 	0
scalar barabasi_100nodes_network.content_distribution 	repo-53_card 	0
scalar barabasi_100nodes_network.content_distribution 	repo-53_price 	0
scalar barabasi_100nodes_network.content_distribution 	repo-54_card 	0
scalar barabasi_100nodes_network.content_distribution 	repo-54_price 	0
scalar barabasi_100nodes_network.content_distribution 	repo-55_card 	0
scalar barabasi_100nodes_network.content_distribution 	repo-55_price 	0
scalar barabasi_100nodes_network.content_distribution 	repo-56_card 	0
scalar barabasi_100nodes_network.content_distribution 	repo-56_price 	0
scalar barabasi_100nodes_network.content_distribution 	repo-57_card 	0
scalar barabasi_100nodes_network.content_distribution 	repo-57_price 	0
scalar barabasi_100nodes_network.content_distribution 	repo-58_card 	0
scalar barabasi_100nodes_network.content_distribution 	repo-58_price 	0
scalar barabasi_100nodes_network.content_distribution 	repo-59_card 	0
scalar barabasi_100nodes_network.content_distribution 	repo-59_price 	0
scalar barabasi_100nodes_network.content_distribution 	repo-60_card 	0
scalar barabasi_100nodes_network.content_distribution 	repo-60_price 	0
scalar barabasi_100nodes_network.content_distribution 	repo-61_card 	0
scalar barabasi_100nodes_network.content_distribution 	repo-61_price 	0
scalar barabasi_100nodes_network.content_distribution 	repo-62_card 	0
scalar barabasi_100nodes_network.content_distribution 	repo-62_price 	0
scalar barabasi_100nodes_network.content_distribution 	repo-63_card 	0
scalar barabasi_100nodes_network.content_distribution 	repo-63_price 	0
scalar barabasi_100nodes_network.content_distribution 	repo-64_card 	0
scalar barabasi_100nodes_network.content_distribution 	repo-64_price 	0
scalar barabasi_100nodes_network.content_distribution 	repo-65_card 	0
scalar barabasi_100nodes_network.content_distribution 	repo-65_price 	0
scalar barabasi_100nodes_network.content_distribution 	repo-66_card 	0
scalar barabasi_100nodes_network.content_distribution 	repo-66_price 	0
scalar barabasi_100nodes_network.content_distribution 	repo-67_card 	0
scalar barabasi_100nodes_network.content_distribution 	repo-67_price 	0
scalar barabasi_100nodes_network.content_distribution 	repo-68_card 	0
scalar barabasi_100nodes_network.content_distribution 	repo-68_price 	0
scalar barabasi_100nodes_network.content_distribution 	repo-69_card 	0
scalar barabasi_100nodes_network.content_distribution 	repo-69_price 	0
scalar barabasi_100nodes_network.content_distribution 	repo-70_card 	0
scalar barabasi_100nodes_network.content_distribution 	repo-70_price 	0
scalar barabasi_100nodes_network.content_distribution 	repo-71_card 	0
scalar barabasi_100nodes_network.content_distribution 	repo-71_price 	0
scalar barabasi_100nodes_network.content_distribution 	repo-72_card 	0
scalar barabasi_100nodes_network.content_distribution 	repo-72_price 	0
scalar barabasi_100nodes_network.content_distribution 	repo-73_card 	0
scalar barabasi_100nodes_network.content_distribution 	repo-73_price 	0
scalar barabasi_100nodes_network.content_distribution 	repo-74_card 	0
scalar barabasi_100nodes_network.content_distribution 	repo-74_price 	0
scalar barabasi_100nodes_network.content_distribution 	repo-75_card 	0
scalar barabasi_100nodes_network.content_distribution 	repo-75_price 	0
scalar barabasi_100nodes_network.content_distribution 	repo-76_card 	0
scalar barabasi_100nodes_network.content_distribution 	repo-76_price 	0
scalar barabasi_100nodes_network.content_distribution 	repo-77_card 	0
scalar barabasi_100nodes_network.content_distribution 	repo-77_price 	0
scalar barabasi_100nodes_network.content_distribution 	repo-78_card 	0
scalar barabasi_100nodes_network.content_distribution 	repo-78_price 	0
scalar barabasi_100nodes_network.content_distribution 	repo-79_card 	0
scalar barabasi_100nodes_network.content_distribution 	repo-79_price 	0
scalar barabasi_100nodes_network.content_distribution 	repo-80_card 	0
scalar barabasi_100nodes_network.content_distribution 	repo-80_price 	0
scalar barabasi_100nodes_network.content_distribution 	repo-81_card 	0
scalar barabasi_100nodes_network.content_distribution 	repo-81_price 	0
scalar barabasi_100nodes_network.content_distribution 	repo-82_card 	0
scalar barabasi_100nodes_network.content_distribution 	repo-82_price 	0
scalar barabasi_100nodes_network.content_distribution 	repo-83_card 	0
scalar barabasi_100nodes_network.content_distribution 	repo-83_price 	0
scalar barabasi_100nodes_network.content_distribution 	repo-84_card 	0
scalar barabasi_100nodes_network.content_distribution 	repo-84_price 	0
scalar barabasi_100nodes_network.content_distribution 	repo-85_card 	0
scalar barabasi_100nodes_network.content_distribution 	repo-85_price 	0
scalar barabasi_100nodes_network.content_distribution 	repo-86_card 	0
scalar barabasi_100nodes_network.content_distribution 	repo-86_price 	0
scalar barabasi_100nodes_network.content_distribution 	repo-87_card 	0
scalar barabasi_100nodes_network.content_distribution 	repo-87_price 	0
scalar barabasi_100nodes_network.content_distribution 	repo-88_card 	0
scalar barabasi_100nodes_network.content_distribution 	repo-88_price 	0
scalar barabasi_100nodes_network.content_distribution 	repo-89_card 	0
scalar barabasi_100nodes_network.content_distribution 	repo-89_price 	0
scalar barabasi_100nodes_network.content_distribution 	repo-90_card 	0
scalar barabasi_100nodes_network.content_distribution 	repo-90_price 	0
scalar barabasi_100nodes_network.content_distribution 	repo-91_card 	0
scalar barabasi_100nodes_network.content_distribution 	repo-91_price 	0
scalar barabasi_100nodes_network.content_distribution 	repo-92_card 	0
scalar barabasi_100nodes_network.content_distribution 	repo-92_price 	0
scalar barabasi_100nodes_network.content_distribution 	repo-93_card 	0
scalar barabasi_100nodes_network.content_distribution 	repo-93_price 	0
scalar barabasi_100nodes_network.content_distribution 	repo-94_card 	0
scalar barabasi_100nodes_network.content_distribution 	repo-94_price 	0
scalar barabasi_100nodes_network.content_distribution 	repo-95_card 	0
scalar barabasi_100nodes_network.content_distribution 	repo-95_price 	0
scalar barabasi_100nodes_network.content_distribution 	repo-96_card 	0
scalar barabasi_100nodes_network.content_distribution 	repo-96_price 	0
scalar barabasi_100nodes_network.content_distribution 	repo-97_card 	0
scalar barabasi_100nodes_network.content_distribution 	repo-97_price 	0
scalar barabasi_100nodes_network.content_distribution 	repo-98_card 	0
scalar barabasi_100nodes_network.content_distribution 	repo-98_price 	0
scalar barabasi_100nodes_network.content_distribution 	repo-99_card 	0
scalar barabasi_100nodes_network.content_distribution 	repo-99_price 	0
scalar barabasi_100nodes_network.statistics 	stabilization_time 	36060
scalar barabasi_100nodes_network.statistics 	p_hit 	0.28766428848133
scalar barabasi_100nodes_network.statistics 	interests 	484967.81
scalar barabasi_100nodes_network.statistics 	data 	275241.62
scalar barabasi_100nodes_network.statistics 	hdistance 	1.4559127360313
scalar barabasi_100nodes_network.statistics 	avg_time 	0
scalar barabasi_100nodes_network.statistics 	downloads 	18002418
scalar barabasi_100nodes_network.statistics 	total_cost 	0
scalar barabasi_100nodes_network.statistics 	total_replicas 	1000000
scalar barabasi_100nodes_network.statistics 	"representations_downloaded 0.310359:0.0339234:0.0370994:0.0467058:0.571913:" 	0
scalar barabasi_100nodes_network.statistics 	"slots_per_representation 100:233:500:833:1167:" 	0
scalar barabasi_100nodes_network.statistics 	inner_hit 	0.60995089659622
scalar barabasi_100nodes_network.statistics 	execution_time 	21649
scalar barabasi_100nodes_network.node[0].core_layer 	interests[0] 	3593031
scalar barabasi_100nodes_network.node[0].core_layer 	data[0] 	2968585
scalar barabasi_100nodes_network.node[0].core_layer 	slots_sent[face$o[1]->client[0]] 	125895409
scalar barabasi_100nodes_network.node[0].core_layer 	slots_sent[face$o[2]->node[1]] 	32022135
scalar barabasi_100nodes_network.node[0].core_layer 	slots_sent[face$o[3]->node[2]] 	448357373
scalar barabasi_100nodes_network.node[0].core_layer 	slots_sent[face$o[4]->node[5]] 	117644154
scalar barabasi_100nodes_network.node[0].core_layer 	slots_sent[face$o[5]->node[10]] 	61353866
scalar barabasi_100nodes_network.node[0].core_layer 	slots_sent[face$o[6]->node[11]] 	32182319
scalar barabasi_100nodes_network.node[0].core_layer 	slots_sent[face$o[7]->node[15]] 	90519308
scalar barabasi_100nodes_network.node[0].core_layer 	slots_sent[face$o[8]->node[21]] 	89947825
scalar barabasi_100nodes_network.node[0].core_layer 	slots_sent[face$o[9]->node[22]] 	31812631
scalar barabasi_100nodes_network.node[0].core_layer 	slots_sent[face$o[10]->node[28]] 	31917271
scalar barabasi_100nodes_network.node[0].core_layer 	slots_sent[face$o[11]->node[37]] 	31717949
scalar barabasi_100nodes_network.node[0].core_layer 	slots_sent[face$o[12]->node[44]] 	31823714
scalar barabasi_100nodes_network.node[0].core_layer 	slots_sent[face$o[13]->node[58]] 	60977272
scalar barabasi_100nodes_network.node[0].core_layer 	slots_sent[face$o[14]->node[73]] 	61323194
scalar barabasi_100nodes_network.node[0].core_layer 	slots_sent[face$o[15]->node[74]] 	22328220
scalar barabasi_100nodes_network.node[0].core_layer 	slots_sent[face$o[16]->node[93]] 	31974466
scalar barabasi_100nodes_network.node[0].content_store 	p_hit[0] 	0.17379365777807
scalar barabasi_100nodes_network.node[0].content_store 	hits[0] 	624446
scalar barabasi_100nodes_network.node[0].content_store 	misses[0] 	2968585
scalar barabasi_100nodes_network.node[0].content_store 	decision_yes[0] 	2968585
scalar barabasi_100nodes_network.node[0].content_store 	decision_no[0] 	0
scalar barabasi_100nodes_network.node[0].content_store 	decision_ratio[0] 	1
scalar barabasi_100nodes_network.node[0].content_store 	"representation_breakdown[0] 0x7ffffb974538:0x7ffffb974538:0x7ffffb974538:0x7ffffb974538:0x7ffffb974538:" 	0
scalar barabasi_100nodes_network.node[0].proactive_component 	hdistance[0].proactive_component 	2.2358599176025
scalar barabasi_100nodes_network.node[0].proactive_component 	downloads[0].proactive_component 	6230533
scalar barabasi_100nodes_network.node[0].proactive_component 	avg_time[0].proactive_component 	0
scalar barabasi_100nodes_network.node[1].core_layer 	interests[1] 	193330
scalar barabasi_100nodes_network.node[1].core_layer 	data[1] 	80206
scalar barabasi_100nodes_network.node[1].core_layer 	slots_sent[face$o[1]->client[1]] 	142230372
scalar barabasi_100nodes_network.node[1].core_layer 	slots_sent[face$o[2]->node[0]] 	0
scalar barabasi_100nodes_network.node[1].content_store 	p_hit[1] 	0.58513422645218
scalar barabasi_100nodes_network.node[1].content_store 	hits[1] 	113124
scalar barabasi_100nodes_network.node[1].content_store 	misses[1] 	80206
scalar barabasi_100nodes_network.node[1].content_store 	decision_yes[1] 	80206
scalar barabasi_100nodes_network.node[1].content_store 	decision_no[1] 	0
scalar barabasi_100nodes_network.node[1].content_store 	decision_ratio[1] 	1
scalar barabasi_100nodes_network.node[1].content_store 	"representation_breakdown[1] 0x7ffffb974538:0x7ffffb974538:0x7ffffb974538:0x7ffffb974538:0x7ffffb974538:" 	0
scalar barabasi_100nodes_network.node[1].proactive_component 	hdistance[1].proactive_component 	3.1328073823018
scalar barabasi_100nodes_network.node[1].proactive_component 	downloads[1].proactive_component 	280888
scalar barabasi_100nodes_network.node[1].proactive_component 	avg_time[1].proactive_component 	0
scalar barabasi_100nodes_network.node[2].core_layer 	interests[2] 	6863470
scalar barabasi_100nodes_network.node[2].core_layer 	data[2] 	5761363
scalar barabasi_100nodes_network.node[2].core_layer 	slots_sent[face$o[1]->client[2]] 	120084344
scalar barabasi_100nodes_network.node[2].core_layer 	slots_sent[face$o[2]->node[0]] 	518354666
scalar barabasi_100nodes_network.node[2].core_layer 	slots_sent[face$o[3]->node[3]] 	60424636
scalar barabasi_100nodes_network.node[2].core_layer 	slots_sent[face$o[4]->node[4]] 	101489889
scalar barabasi_100nodes_network.node[2].core_layer 	slots_sent[face$o[5]->node[6]] 	31631027
scalar barabasi_100nodes_network.node[2].core_layer 	slots_sent[face$o[6]->node[7]] 	299000405
scalar barabasi_100nodes_network.node[2].core_layer 	slots_sent[face$o[7]->node[8]] 	213040547
scalar barabasi_100nodes_network.node[2].core_layer 	slots_sent[face$o[8]->node[13]] 	144195901
scalar barabasi_100nodes_network.node[2].core_layer 	slots_sent[face$o[9]->node[16]] 	148513221
scalar barabasi_100nodes_network.node[2].core_layer 	slots_sent[face$o[10]->node[18]] 	109090713
scalar barabasi_100nodes_network.node[2].core_layer 	slots_sent[face$o[11]->node[25]] 	60856576
scalar barabasi_100nodes_network.node[2].core_layer 	slots_sent[face$o[12]->node[26]] 	108870192
scalar barabasi_100nodes_network.node[2].core_layer 	slots_sent[face$o[13]->node[29]] 	31552294
scalar barabasi_100nodes_network.node[2].core_layer 	slots_sent[face$o[14]->node[32]] 	81764440
scalar barabasi_100nodes_network.node[2].core_layer 	slots_sent[face$o[15]->node[33]] 	31596096
scalar barabasi_100nodes_network.node[2].core_layer 	slots_sent[face$o[16]->node[34]] 	31400273
scalar barabasi_100nodes_network.node[2].core_layer 	slots_sent[face$o[17]->node[36]] 	60594559
scalar barabasi_100nodes_network.node[2].core_layer 	slots_sent[face$o[18]->node[41]] 	167755436
scalar barabasi_100nodes_network.node[2].core_layer 	slots_sent[face$o[19]->node[45]] 	23067379
scalar barabasi_100nodes_network.node[2].core_layer 	slots_sent[face$o[20]->node[59]] 	31230786
scalar barabasi_100nodes_network.node[2].core_layer 	slots_sent[face$o[21]->node[62]] 	88418881
scalar barabasi_100nodes_network.node[2].core_layer 	slots_sent[face$o[22]->node[79]] 	31445525
scalar barabasi_100nodes_network.node[2].content_store 	p_hit[2] 	0.16057577289622
scalar barabasi_100nodes_network.node[2].content_store 	hits[2] 	1102107
scalar barabasi_100nodes_network.node[2].content_store 	misses[2] 	5761363
scalar barabasi_100nodes_network.node[2].content_store 	decision_yes[2] 	5761363
scalar barabasi_100nodes_network.node[2].content_store 	decision_no[2] 	0
scalar barabasi_100nodes_network.node[2].content_store 	decision_ratio[2] 	1
scalar barabasi_100nodes_network.node[2].content_store 	"representation_breakdown[2] 0x7ffffb974538:0x7ffffb974538:0x7ffffb974538:0x7ffffb974538:0x7ffffb974538:" 	0
scalar barabasi_100nodes_network.node[2].proactive_component 	hdistance[2].proactive_component 	2.3509875988326
scalar barabasi_100nodes_network.node[2].proactive_component 	downloads[2].proactive_component 	11772037
scalar barabasi_100nodes_network.node[2].proactive_component 	avg_time[2].proactive_component 	0
scalar barabasi_100nodes_network.node[3].core_layer 	interests[3] 	279258
scalar barabasi_100nodes_network.node[3].core_layer 	data[3] 	155668
scalar barabasi_100nodes_network.node[3].core_layer 	slots_sent[face$o[1]->client[3]] 	140371277
scalar barabasi_100nodes_network.node[3].core_layer 	slots_sent[face$o[2]->node[2]] 	0
scalar barabasi_100nodes_network.node[3].core_layer 	slots_sent[face$o[3]->node[52]] 	32642425
scalar barabasi_100nodes_network.node[3].content_store 	p_hit[3] 	0.44256565613161
scalar barabasi_100nodes_network.node[3].content_store 	hits[3] 	123590
scalar barabasi_100nodes_network.node[3].content_store 	misses[3] 	155668
scalar barabasi_100nodes_network.node[3].content_store 	decision_yes[3] 	155668
scalar barabasi_100nodes_network.node[3].content_store 	decision_no[3] 	0
scalar barabasi_100nodes_network.node[3].content_store 	decision_ratio[3] 	1
scalar barabasi_100nodes_network.node[3].content_store 	"representation_breakdown[3] 0x7ffffb974538:0x7ffffb974538:0x7ffffb974538:0x7ffffb974538:0x7ffffb974538:" 	0
scalar barabasi_100nodes_network.node[3].proactive_component 	hdistance[3].proactive_component 	2.8468014881374
scalar barabasi_100nodes_network.node[3].proactive_component 	downloads[3].proactive_component 	416897
scalar barabasi_100nodes_network.node[3].proactive_component 	avg_time[3].proactive_component 	0
scalar barabasi_100nodes_network.node[4].core_layer 	interests[4] 	517758
scalar barabasi_100nodes_network.node[4].core_layer 	repo_load[4] 	118032
scalar barabasi_100nodes_network.node[4].core_layer 	data[4] 	265806
scalar barabasi_100nodes_network.node[4].core_layer 	slots_sent[face$o[1]->client[4]] 	119566507
scalar barabasi_100nodes_network.node[4].core_layer 	slots_sent[face$o[2]->node[2]] 	0
scalar barabasi_100nodes_network.node[4].core_layer 	slots_sent[face$o[3]->node[27]] 	56870073
scalar barabasi_100nodes_network.node[4].core_layer 	slots_sent[face$o[4]->node[30]] 	31548584
scalar barabasi_100nodes_network.node[4].core_layer 	slots_sent[face$o[5]->node[85]] 	23884101
scalar barabasi_100nodes_network.node[4].content_store 	p_hit[4] 	0.25865365672766
scalar barabasi_100nodes_network.node[4].content_store 	hits[4] 	133920
scalar barabasi_100nodes_network.node[4].content_store 	misses[4] 	383838
scalar barabasi_100nodes_network.node[4].content_store 	decision_yes[4] 	265806
scalar barabasi_100nodes_network.node[4].content_store 	decision_no[4] 	118032
scalar barabasi_100nodes_network.node[4].content_store 	decision_ratio[4] 	0.69249527144264
scalar barabasi_100nodes_network.node[4].content_store 	"representation_breakdown[4] 0x7ffffb974538:0x7ffffb974538:0x7ffffb974538:0x7ffffb974538:0x7ffffb974538:" 	0
scalar barabasi_100nodes_network.node[4].proactive_component 	hdistance[4].proactive_component 	3.0622409891589
scalar barabasi_100nodes_network.node[4].proactive_component 	downloads[4].proactive_component 	676130
scalar barabasi_100nodes_network.node[4].proactive_component 	avg_time[4].proactive_component 	0
scalar barabasi_100nodes_network.node[5].core_layer 	interests[5] 	445919
scalar barabasi_100nodes_network.node[5].core_layer 	data[5] 	299469
scalar barabasi_100nodes_network.node[5].core_layer 	slots_sent[face$o[1]->client[5]] 	139553614
scalar barabasi_100nodes_network.node[5].core_layer 	slots_sent[face$o[2]->node[0]] 	0
scalar barabasi_100nodes_network.node[5].core_layer 	slots_sent[face$o[3]->node[9]] 	33653435
scalar barabasi_100nodes_network.node[5].core_layer 	slots_sent[face$o[4]->node[35]] 	63370630
scalar barabasi_100nodes_network.node[5].content_store 	p_hit[5] 	0.32842287500645
scalar barabasi_100nodes_network.node[5].content_store 	hits[5] 	146450
scalar barabasi_100nodes_network.node[5].content_store 	misses[5] 	299469
scalar barabasi_100nodes_network.node[5].content_store 	decision_yes[5] 	299469
scalar barabasi_100nodes_network.node[5].content_store 	decision_no[5] 	0
scalar barabasi_100nodes_network.node[5].content_store 	decision_ratio[5] 	1
scalar barabasi_100nodes_network.node[5].content_store 	"representation_breakdown[5] 0x7ffffb974538:0x7ffffb974538:0x7ffffb974538:0x7ffffb974538:0x7ffffb974538:" 	0
scalar barabasi_100nodes_network.node[5].proactive_component 	hdistance[5].proactive_component 	3.1401303250658
scalar barabasi_100nodes_network.node[5].proactive_component 	downloads[5].proactive_component 	696259
scalar barabasi_100nodes_network.node[5].proactive_component 	avg_time[5].proactive_component 	0
scalar barabasi_100nodes_network.node[6].core_layer 	interests[6] 	193422
scalar barabasi_100nodes_network.node[6].core_layer 	data[6] 	80751
scalar barabasi_100nodes_network.node[6].core_layer 	slots_sent[face$o[1]->client[6]] 	142020044
scalar barabasi_100nodes_network.node[6].core_layer 	slots_sent[face$o[2]->node[2]] 	0
scalar barabasi_100nodes_network.node[6].content_store 	p_hit[6] 	0.58251388156466
scalar barabasi_100nodes_network.node[6].content_store 	hits[6] 	112671
scalar barabasi_100nodes_network.node[6].content_store 	misses[6] 	80751
scalar barabasi_100nodes_network.node[6].content_store 	decision_yes[6] 	80751
scalar barabasi_100nodes_network.node[6].content_store 	decision_no[6] 	0
scalar barabasi_100nodes_network.node[6].content_store 	decision_ratio[6] 	1
scalar barabasi_100nodes_network.node[6].content_store 	"representation_breakdown[6] 0x7ffffb974538:0x7ffffb974538:0x7ffffb974538:0x7ffffb974538:0x7ffffb974538:" 	0
scalar barabasi_100nodes_network.node[6].proactive_component 	hdistance[6].proactive_component 	2.8535957382768
scalar barabasi_100nodes_network.node[6].proactive_component 	downloads[6].proactive_component 	275757
scalar barabasi_100nodes_network.node[6].proactive_component 	avg_time[6].proactive_component 	0
scalar barabasi_100nodes_network.node[7].core_layer 	interests[7] 	2602008
scalar barabasi_100nodes_network.node[7].core_layer 	data[7] 	2183164
scalar barabasi_100nodes_network.node[7].core_layer 	slots_sent[face$o[1]->client[7]] 	129210876
scalar barabasi_100nodes_network.node[7].core_layer 	slots_sent[face$o[2]->node[2]] 	553011146
scalar barabasi_100nodes_network.node[7].core_layer 	slots_sent[face$o[3]->node[23]] 	173908629
scalar barabasi_100nodes_network.node[7].core_layer 	slots_sent[face$o[4]->node[31]] 	119490423
scalar barabasi_100nodes_network.node[7].core_layer 	slots_sent[face$o[5]->node[49]] 	22660541
scalar barabasi_100nodes_network.node[7].core_layer 	slots_sent[face$o[6]->node[90]] 	22721357
scalar barabasi_100nodes_network.node[7].content_store 	p_hit[7] 	0.16096952814903
scalar barabasi_100nodes_network.node[7].content_store 	hits[7] 	418844
scalar barabasi_100nodes_network.node[7].content_store 	misses[7] 	2183164
scalar barabasi_100nodes_network.node[7].content_store 	decision_yes[7] 	2183164
scalar barabasi_100nodes_network.node[7].content_store 	decision_no[7] 	0
scalar barabasi_100nodes_network.node[7].content_store 	decision_ratio[7] 	1
scalar barabasi_100nodes_network.node[7].content_store 	"representation_breakdown[7] 0x7ffffb974538:0x7ffffb974538:0x7ffffb974538:0x7ffffb974538:0x7ffffb974538:" 	0
scalar barabasi_100nodes_network.node[7].proactive_component 	hdistance[7].proactive_component 	3.0749997225198
scalar barabasi_100nodes_network.node[7].proactive_component 	downloads[7].proactive_component 	3784054
scalar barabasi_100nodes_network.node[7].proactive_component 	avg_time[7].proactive_component 	0
scalar barabasi_100nodes_network.node[8].core_layer 	interests[8] 	749659
scalar barabasi_100nodes_network.node[8].core_layer 	data[8] 	548633
scalar barabasi_100nodes_network.node[8].core_layer 	slots_sent[face$o[1]->client[8]] 	137461047
scalar barabasi_100nodes_network.node[8].core_layer 	slots_sent[face$o[2]->node[2]] 	0
scalar barabasi_100nodes_network.node[8].core_layer 	slots_sent[face$o[3]->node[12]] 	24455390
scalar barabasi_100nodes_network.node[8].core_layer 	slots_sent[face$o[4]->node[14]] 	33680363
scalar barabasi_100nodes_network.node[8].core_layer 	slots_sent[face$o[5]->node[17]] 	33492884
scalar barabasi_100nodes_network.node[8].core_layer 	slots_sent[face$o[6]->node[39]] 	55564584
scalar barabasi_100nodes_network.node[8].core_layer 	slots_sent[face$o[7]->node[61]] 	33691408
scalar barabasi_100nodes_network.node[8].core_layer 	slots_sent[face$o[8]->node[66]] 	33739350
scalar barabasi_100nodes_network.node[8].content_store 	p_hit[8] 	0.26815658852892
scalar barabasi_100nodes_network.node[8].content_store 	hits[8] 	201026
scalar barabasi_100nodes_network.node[8].content_store 	misses[8] 	548633
scalar barabasi_100nodes_network.node[8].content_store 	decision_yes[8] 	548633
scalar barabasi_100nodes_network.node[8].content_store 	decision_no[8] 	0
scalar barabasi_100nodes_network.node[8].content_store 	decision_ratio[8] 	1
scalar barabasi_100nodes_network.node[8].content_store 	"representation_breakdown[8] 0x7ffffb974538:0x7ffffb974538:0x7ffffb974538:0x7ffffb974538:0x7ffffb974538:" 	0
scalar barabasi_100nodes_network.node[8].proactive_component 	hdistance[8].proactive_component 	2.879977706691
scalar barabasi_100nodes_network.node[8].proactive_component 	downloads[8].proactive_component 	1302633
scalar barabasi_100nodes_network.node[8].proactive_component 	avg_time[8].proactive_component 	0
scalar barabasi_100nodes_network.node[9].core_layer 	interests[9] 	193057
scalar barabasi_100nodes_network.node[9].core_layer 	data[9] 	79702
scalar barabasi_100nodes_network.node[9].core_layer 	slots_sent[face$o[1]->client[9]] 	145811371
scalar barabasi_100nodes_network.node[9].core_layer 	slots_sent[face$o[2]->node[5]] 	0
scalar barabasi_100nodes_network.node[9].content_store 	p_hit[9] 	0.58715819680198
scalar barabasi_100nodes_network.node[9].content_store 	hits[9] 	113355
scalar barabasi_100nodes_network.node[9].content_store 	misses[9] 	79702
scalar barabasi_100nodes_network.node[9].content_store 	decision_yes[9] 	79702
scalar barabasi_100nodes_network.node[9].content_store 	decision_no[9] 	0
scalar barabasi_100nodes_network.node[9].content_store 	decision_ratio[9] 	1
scalar barabasi_100nodes_network.node[9].content_store 	"representation_breakdown[9] 0x7ffffb974538:0x7ffffb974538:0x7ffffb974538:0x7ffffb974538:0x7ffffb974538:" 	0
scalar barabasi_100nodes_network.node[9].proactive_component 	hdistance[9].proactive_component 	3.3525317864076
scalar barabasi_100nodes_network.node[9].proactive_component 	downloads[9].proactive_component 	260646
scalar barabasi_100nodes_network.node[9].proactive_component 	avg_time[9].proactive_component 	0
scalar barabasi_100nodes_network.node[10].core_layer 	interests[10] 	280817
scalar barabasi_100nodes_network.node[10].core_layer 	data[10] 	155493
scalar barabasi_100nodes_network.node[10].core_layer 	slots_sent[face$o[1]->client[10]] 	142384422
scalar barabasi_100nodes_network.node[10].core_layer 	slots_sent[face$o[2]->node[0]] 	0
scalar barabasi_100nodes_network.node[10].core_layer 	slots_sent[face$o[3]->node[71]] 	32978003
scalar barabasi_100nodes_network.node[10].content_store 	p_hit[10] 	0.4462835227212
scalar barabasi_100nodes_network.node[10].content_store 	hits[10] 	125324
scalar barabasi_100nodes_network.node[10].content_store 	misses[10] 	155493
scalar barabasi_100nodes_network.node[10].content_store 	decision_yes[10] 	155493
scalar barabasi_100nodes_network.node[10].content_store 	decision_no[10] 	0
scalar barabasi_100nodes_network.node[10].content_store 	decision_ratio[10] 	1
scalar barabasi_100nodes_network.node[10].content_store 	"representation_breakdown[10] 0x7ffffb974538:0x7ffffb974538:0x7ffffb974538:0x7ffffb974538:0x7ffffb974538:" 	0
scalar barabasi_100nodes_network.node[10].proactive_component 	hdistance[10].proactive_component 	3.1262883438475
scalar barabasi_100nodes_network.node[10].proactive_component 	downloads[10].proactive_component 	424188
scalar barabasi_100nodes_network.node[10].proactive_component 	avg_time[10].proactive_component 	0
scalar barabasi_100nodes_network.node[11].core_layer 	interests[11] 	193972
scalar barabasi_100nodes_network.node[11].core_layer 	data[11] 	80505
scalar barabasi_100nodes_network.node[11].core_layer 	slots_sent[face$o[1]->client[11]] 	142641660
scalar barabasi_100nodes_network.node[11].core_layer 	slots_sent[face$o[2]->node[0]] 	0
scalar barabasi_100nodes_network.node[11].content_store 	p_hit[11] 	0.58496587136288
scalar barabasi_100nodes_network.node[11].content_store 	hits[11] 	113467
scalar barabasi_100nodes_network.node[11].content_store 	misses[11] 	80505
scalar barabasi_100nodes_network.node[11].content_store 	decision_yes[11] 	80505
scalar barabasi_100nodes_network.node[11].content_store 	decision_no[11] 	0
scalar barabasi_100nodes_network.node[11].content_store 	decision_ratio[11] 	1
scalar barabasi_100nodes_network.node[11].content_store 	"representation_breakdown[11] 0x7ffffb974538:0x7ffffb974538:0x7ffffb974538:0x7ffffb974538:0x7ffffb974538:" 	0
scalar barabasi_100nodes_network.node[11].proactive_component 	hdistance[11].proactive_component 	3.134368900282
scalar barabasi_100nodes_network.node[11].proactive_component 	downloads[11].proactive_component 	281263
scalar barabasi_100nodes_network.node[11].proactive_component 	avg_time[11].proactive_component 	0
scalar barabasi_100nodes_network.node[12].core_layer 	interests[12] 	188851
scalar barabasi_100nodes_network.node[12].core_layer 	repo_load[12] 	49326
scalar barabasi_100nodes_network.node[12].core_layer 	data[12] 	56527
scalar barabasi_100nodes_network.node[12].core_layer 	slots_sent[face$o[1]->client[12]] 	110895675
scalar barabasi_100nodes_network.node[12].core_layer 	slots_sent[face$o[2]->node[8]] 	0
scalar barabasi_100nodes_network.node[12].content_store 	p_hit[12] 	0.4394893328603
scalar barabasi_100nodes_network.node[12].content_store 	hits[12] 	82998
scalar barabasi_100nodes_network.node[12].content_store 	misses[12] 	105853
scalar barabasi_100nodes_network.node[12].content_store 	decision_yes[12] 	56527
scalar barabasi_100nodes_network.node[12].content_store 	decision_no[12] 	49326
scalar barabasi_100nodes_network.node[12].content_store 	decision_ratio[12] 	0.53401415170094
scalar barabasi_100nodes_network.node[12].content_store 	"representation_breakdown[12] 0x7ffffb974538:0x7ffffb974538:0x7ffffb974538:0x7ffffb974538:0x7ffffb974538:" 	0
scalar barabasi_100nodes_network.node[12].proactive_component 	hdistance[12].proactive_component 	3.5656201540534
scalar barabasi_100nodes_network.node[12].proactive_component 	downloads[12].proactive_component 	196685
scalar barabasi_100nodes_network.node[12].proactive_component 	avg_time[12].proactive_component 	0
scalar barabasi_100nodes_network.node[13].core_layer 	interests[13] 	522426
scalar barabasi_100nodes_network.node[13].core_layer 	data[13] 	371666
scalar barabasi_100nodes_network.node[13].core_layer 	slots_sent[face$o[1]->client[13]] 	138427392
scalar barabasi_100nodes_network.node[13].core_layer 	slots_sent[face$o[2]->node[2]] 	0
scalar barabasi_100nodes_network.node[13].core_layer 	slots_sent[face$o[3]->node[67]] 	33947899
scalar barabasi_100nodes_network.node[13].core_layer 	slots_sent[face$o[4]->node[78]] 	91538176
scalar barabasi_100nodes_network.node[13].content_store 	p_hit[13] 	0.28857675536822
scalar barabasi_100nodes_network.node[13].content_store 	hits[13] 	150760
scalar barabasi_100nodes_network.node[13].content_store 	misses[13] 	371666
scalar barabasi_100nodes_network.node[13].content_store 	decision_yes[13] 	371666
scalar barabasi_100nodes_network.node[13].content_store 	decision_no[13] 	0
scalar barabasi_100nodes_network.node[13].content_store 	decision_ratio[13] 	1
scalar barabasi_100nodes_network.node[13].content_store 	"representation_breakdown[13] 0x7ffffb974538:0x7ffffb974538:0x7ffffb974538:0x7ffffb974538:0x7ffffb974538:" 	0
scalar barabasi_100nodes_network.node[13].proactive_component 	hdistance[13].proactive_component 	2.8438279293433
scalar barabasi_100nodes_network.node[13].proactive_component 	downloads[13].proactive_component 	749878
scalar barabasi_100nodes_network.node[13].proactive_component 	avg_time[13].proactive_component 	0
scalar barabasi_100nodes_network.node[14].core_layer 	interests[14] 	192279
scalar barabasi_100nodes_network.node[14].core_layer 	data[14] 	79453
scalar barabasi_100nodes_network.node[14].core_layer 	slots_sent[face$o[1]->client[14]] 	145413413
scalar barabasi_100nodes_network.node[14].core_layer 	slots_sent[face$o[2]->node[8]] 	0
scalar barabasi_100nodes_network.node[14].content_store 	p_hit[14] 	0.586782747986
scalar barabasi_100nodes_network.node[14].content_store 	hits[14] 	112826
scalar barabasi_100nodes_network.node[14].content_store 	misses[14] 	79453
scalar barabasi_100nodes_network.node[14].content_store 	decision_yes[14] 	79453
scalar barabasi_100nodes_network.node[14].content_store 	decision_no[14] 	0
scalar barabasi_100nodes_network.node[14].content_store 	decision_ratio[14] 	1
scalar barabasi_100nodes_network.node[14].content_store 	"representation_breakdown[14] 0x7ffffb974538:0x7ffffb974538:0x7ffffb974538:0x7ffffb974538:0x7ffffb974538:" 	0
scalar barabasi_100nodes_network.node[14].proactive_component 	hdistance[14].proactive_component 	3.187394441288
scalar barabasi_100nodes_network.node[14].proactive_component 	downloads[14].proactive_component 	256966
scalar barabasi_100nodes_network.node[14].proactive_component 	avg_time[14].proactive_component 	0
scalar barabasi_100nodes_network.node[15].core_layer 	interests[15] 	366618
scalar barabasi_100nodes_network.node[15].core_layer 	data[15] 	227753
scalar barabasi_100nodes_network.node[15].core_layer 	slots_sent[face$o[1]->client[15]] 	140819874
scalar barabasi_100nodes_network.node[15].core_layer 	slots_sent[face$o[2]->node[0]] 	0
scalar barabasi_100nodes_network.node[15].core_layer 	slots_sent[face$o[3]->node[40]] 	33583971
scalar barabasi_100nodes_network.node[15].core_layer 	slots_sent[face$o[4]->node[56]] 	33502323
scalar barabasi_100nodes_network.node[15].content_store 	p_hit[15] 	0.3787730007801
scalar barabasi_100nodes_network.node[15].content_store 	hits[15] 	138865
scalar barabasi_100nodes_network.node[15].content_store 	misses[15] 	227753
scalar barabasi_100nodes_network.node[15].content_store 	decision_yes[15] 	227753
scalar barabasi_100nodes_network.node[15].content_store 	decision_no[15] 	0
scalar barabasi_100nodes_network.node[15].content_store 	decision_ratio[15] 	1
scalar barabasi_100nodes_network.node[15].content_store 	"representation_breakdown[15] 0x7ffffb974538:0x7ffffb974538:0x7ffffb974538:0x7ffffb974538:0x7ffffb974538:" 	0
scalar barabasi_100nodes_network.node[15].proactive_component 	hdistance[15].proactive_component 	3.1526749859087
scalar barabasi_100nodes_network.node[15].proactive_component 	downloads[15].proactive_component 	597891
scalar barabasi_100nodes_network.node[15].proactive_component 	avg_time[15].proactive_component 	0
scalar barabasi_100nodes_network.node[16].core_layer 	interests[16] 	2283664
scalar barabasi_100nodes_network.node[16].core_layer 	repo_load[16] 	1793389
scalar barabasi_100nodes_network.node[16].core_layer 	data[16] 	370963
scalar barabasi_100nodes_network.node[16].core_layer 	slots_sent[face$o[1]->client[16]] 	106573068
scalar barabasi_100nodes_network.node[16].core_layer 	slots_sent[face$o[2]->node[2]] 	489516944
scalar barabasi_100nodes_network.node[16].core_layer 	slots_sent[face$o[3]->node[19]] 	140018806
scalar barabasi_100nodes_network.node[16].core_layer 	slots_sent[face$o[4]->node[20]] 	31120370
scalar barabasi_100nodes_network.node[16].content_store 	p_hit[16] 	0.052245864540493
scalar barabasi_100nodes_network.node[16].content_store 	hits[16] 	119312
scalar barabasi_100nodes_network.node[16].content_store 	misses[16] 	2164352
scalar barabasi_100nodes_network.node[16].content_store 	decision_yes[16] 	370963
scalar barabasi_100nodes_network.node[16].content_store 	decision_no[16] 	1793389
scalar barabasi_100nodes_network.node[16].content_store 	decision_ratio[16] 	0.17139679682418
scalar barabasi_100nodes_network.node[16].content_store 	"representation_breakdown[16] 0x7ffffb974538:0x7ffffb974538:0x7ffffb974538:0x7ffffb974538:0x7ffffb974538:" 	0
scalar barabasi_100nodes_network.node[16].proactive_component 	hdistance[16].proactive_component 	3.1235123208027
scalar barabasi_100nodes_network.node[16].proactive_component 	downloads[16].proactive_component 	647401
scalar barabasi_100nodes_network.node[16].proactive_component 	avg_time[16].proactive_component 	0
scalar barabasi_100nodes_network.node[17].core_layer 	interests[17] 	192365
scalar barabasi_100nodes_network.node[17].core_layer 	data[17] 	79545
scalar barabasi_100nodes_network.node[17].core_layer 	slots_sent[face$o[1]->client[17]] 	145602940
scalar barabasi_100nodes_network.node[17].core_layer 	slots_sent[face$o[2]->node[8]] 	0
scalar barabasi_100nodes_network.node[17].content_store 	p_hit[17] 	0.58648922621059
scalar barabasi_100nodes_network.node[17].content_store 	hits[17] 	112820
scalar barabasi_100nodes_network.node[17].content_store 	misses[17] 	79545
scalar barabasi_100nodes_network.node[17].content_store 	decision_yes[17] 	79545
scalar barabasi_100nodes_network.node[17].content_store 	decision_no[17] 	0
scalar barabasi_100nodes_network.node[17].content_store 	decision_ratio[17] 	1
scalar barabasi_100nodes_network.node[17].content_store 	"representation_breakdown[17] 0x7ffffb974538:0x7ffffb974538:0x7ffffb974538:0x7ffffb974538:0x7ffffb974538:" 	0
scalar barabasi_100nodes_network.node[17].proactive_component 	hdistance[17].proactive_component 	3.1925129124514
scalar barabasi_100nodes_network.node[17].proactive_component 	downloads[17].proactive_component 	257697
scalar barabasi_100nodes_network.node[17].proactive_component 	avg_time[17].proactive_component 	0
scalar barabasi_100nodes_network.node[18].core_layer 	interests[18] 	429159
scalar barabasi_100nodes_network.node[18].core_layer 	data[18] 	281540
scalar barabasi_100nodes_network.node[18].core_layer 	slots_sent[face$o[1]->client[18]] 	139624252
scalar barabasi_100nodes_network.node[18].core_layer 	slots_sent[face$o[2]->node[2]] 	0
scalar barabasi_100nodes_network.node[18].core_layer 	slots_sent[face$o[3]->node[53]] 	33358604
scalar barabasi_100nodes_network.node[18].core_layer 	slots_sent[face$o[4]->node[68]] 	22371992
scalar barabasi_100nodes_network.node[18].core_layer 	slots_sent[face$o[5]->node[72]] 	33428770
scalar barabasi_100nodes_network.node[18].content_store 	p_hit[18] 	0.34397274669761
scalar barabasi_100nodes_network.node[18].content_store 	hits[18] 	147619
scalar barabasi_100nodes_network.node[18].content_store 	misses[18] 	281540
scalar barabasi_100nodes_network.node[18].content_store 	decision_yes[18] 	281540
scalar barabasi_100nodes_network.node[18].content_store 	decision_no[18] 	0
scalar barabasi_100nodes_network.node[18].content_store 	decision_ratio[18] 	1
scalar barabasi_100nodes_network.node[18].content_store 	"representation_breakdown[18] 0x7ffffb974538:0x7ffffb974538:0x7ffffb974538:0x7ffffb974538:0x7ffffb974538:" 	0
scalar barabasi_100nodes_network.node[18].proactive_component 	hdistance[18].proactive_component 	2.8342994003187
scalar barabasi_100nodes_network.node[18].proactive_component 	downloads[18].proactive_component 	708543
scalar barabasi_100nodes_network.node[18].proactive_component 	avg_time[18].proactive_component 	0
scalar barabasi_100nodes_network.node[19].core_layer 	interests[19] 	546926
scalar barabasi_100nodes_network.node[19].core_layer 	data[19] 	375120
scalar barabasi_100nodes_network.node[19].core_layer 	slots_sent[face$o[1]->client[19]] 	137013890
scalar barabasi_100nodes_network.node[19].core_layer 	slots_sent[face$o[2]->node[16]] 	0
scalar barabasi_100nodes_network.node[19].core_layer 	slots_sent[face$o[3]->node[63]] 	32546957
scalar barabasi_100nodes_network.node[19].core_layer 	slots_sent[face$o[4]->node[70]] 	32509424
scalar barabasi_100nodes_network.node[19].core_layer 	slots_sent[face$o[5]->node[80]] 	32674364
scalar barabasi_100nodes_network.node[19].core_layer 	slots_sent[face$o[6]->node[89]] 	32378042
scalar barabasi_100nodes_network.node[19].content_store 	p_hit[19] 	0.31413024796773
scalar barabasi_100nodes_network.node[19].content_store 	hits[19] 	171806
scalar barabasi_100nodes_network.node[19].content_store 	misses[19] 	375120
scalar barabasi_100nodes_network.node[19].content_store 	decision_yes[19] 	375120
scalar barabasi_100nodes_network.node[19].content_store 	decision_no[19] 	0
scalar barabasi_100nodes_network.node[19].content_store 	decision_ratio[19] 	1
scalar barabasi_100nodes_network.node[19].content_store 	"representation_breakdown[19] 0x7ffffb974538:0x7ffffb974538:0x7ffffb974538:0x7ffffb974538:0x7ffffb974538:" 	0
scalar barabasi_100nodes_network.node[19].proactive_component 	hdistance[19].proactive_component 	2.9147199522114
scalar barabasi_100nodes_network.node[19].proactive_component 	downloads[19].proactive_component 	1021165
scalar barabasi_100nodes_network.node[19].proactive_component 	avg_time[19].proactive_component 	0
scalar barabasi_100nodes_network.node[20].core_layer 	interests[20] 	195260
scalar barabasi_100nodes_network.node[20].core_layer 	data[20] 	81200
scalar barabasi_100nodes_network.node[20].core_layer 	slots_sent[face$o[1]->client[20]] 	141640890
scalar barabasi_100nodes_network.node[20].core_layer 	slots_sent[face$o[2]->node[16]] 	0
scalar barabasi_100nodes_network.node[20].content_store 	p_hit[20] 	0.58414421796579
scalar barabasi_100nodes_network.node[20].content_store 	hits[20] 	114060
scalar barabasi_100nodes_network.node[20].content_store 	misses[20] 	81200
scalar barabasi_100nodes_network.node[20].content_store 	decision_yes[20] 	81200
scalar barabasi_100nodes_network.node[20].content_store 	decision_no[20] 	0
scalar barabasi_100nodes_network.node[20].content_store 	decision_ratio[20] 	1
scalar barabasi_100nodes_network.node[20].content_store 	"representation_breakdown[20] 0x7ffffb974538:0x7ffffb974538:0x7ffffb974538:0x7ffffb974538:0x7ffffb974538:" 	0
scalar barabasi_100nodes_network.node[20].proactive_component 	hdistance[20].proactive_component 	2.8013154134014
scalar barabasi_100nodes_network.node[20].proactive_component 	downloads[20].proactive_component 	300894
scalar barabasi_100nodes_network.node[20].proactive_component 	avg_time[20].proactive_component 	0
scalar barabasi_100nodes_network.node[21].core_layer 	interests[21] 	367468
scalar barabasi_100nodes_network.node[21].core_layer 	data[21] 	228252
scalar barabasi_100nodes_network.node[21].core_layer 	slots_sent[face$o[1]->client[21]] 	140745032
scalar barabasi_100nodes_network.node[21].core_layer 	slots_sent[face$o[2]->node[0]] 	0
scalar barabasi_100nodes_network.node[21].core_layer 	slots_sent[face$o[3]->node[24]] 	33487918
scalar barabasi_100nodes_network.node[21].core_layer 	slots_sent[face$o[4]->node[57]] 	33422430
scalar barabasi_100nodes_network.node[21].content_store 	p_hit[21] 	0.37885203609566
scalar barabasi_100nodes_network.node[21].content_store 	hits[21] 	139216
scalar barabasi_100nodes_network.node[21].content_store 	misses[21] 	228252
scalar barabasi_100nodes_network.node[21].content_store 	decision_yes[21] 	228252
scalar barabasi_100nodes_network.node[21].content_store 	decision_no[21] 	0
scalar barabasi_100nodes_network.node[21].content_store 	decision_ratio[21] 	1
scalar barabasi_100nodes_network.node[21].content_store 	"representation_breakdown[21] 0x7ffffb974538:0x7ffffb974538:0x7ffffb974538:0x7ffffb974538:0x7ffffb974538:" 	0
scalar barabasi_100nodes_network.node[21].proactive_component 	hdistance[21].proactive_component 	3.1543721629838
scalar barabasi_100nodes_network.node[21].proactive_component 	downloads[21].proactive_component 	597679
scalar barabasi_100nodes_network.node[21].proactive_component 	avg_time[21].proactive_component 	0
scalar barabasi_100nodes_network.node[22].core_layer 	interests[22] 	193473
scalar barabasi_100nodes_network.node[22].core_layer 	data[22] 	80467
scalar barabasi_100nodes_network.node[22].core_layer 	slots_sent[face$o[1]->client[22]] 	141945687
scalar barabasi_100nodes_network.node[22].core_layer 	slots_sent[face$o[2]->node[0]] 	0
scalar barabasi_100nodes_network.node[22].content_store 	p_hit[22] 	0.58409183710389
scalar barabasi_100nodes_network.node[22].content_store 	hits[22] 	113006
scalar barabasi_100nodes_network.node[22].content_store 	misses[22] 	80467
scalar barabasi_100nodes_network.node[22].content_store 	decision_yes[22] 	80467
scalar barabasi_100nodes_network.node[22].content_store 	decision_no[22] 	0
scalar barabasi_100nodes_network.node[22].content_store 	decision_ratio[22] 	1
scalar barabasi_100nodes_network.node[22].content_store 	"representation_breakdown[22] 0x7ffffb974538:0x7ffffb974538:0x7ffffb974538:0x7ffffb974538:0x7ffffb974538:" 	0
scalar barabasi_100nodes_network.node[22].proactive_component 	hdistance[22].proactive_component 	3.1362348142236
scalar barabasi_100nodes_network.node[22].proactive_component 	downloads[22].proactive_component 	281925
scalar barabasi_100nodes_network.node[22].proactive_component 	avg_time[22].proactive_component 	0
scalar barabasi_100nodes_network.node[23].core_layer 	interests[23] 	2145860
scalar barabasi_100nodes_network.node[23].core_layer 	data[23] 	1871802
scalar barabasi_100nodes_network.node[23].core_layer 	slots_sent[face$o[1]->client[23]] 	129913180
scalar barabasi_100nodes_network.node[23].core_layer 	slots_sent[face$o[2]->node[7]] 	499990922
scalar barabasi_100nodes_network.node[23].core_layer 	slots_sent[face$o[3]->node[46]] 	59359452
scalar barabasi_100nodes_network.node[23].core_layer 	slots_sent[face$o[4]->node[47]] 	32854302
scalar barabasi_100nodes_network.node[23].core_layer 	slots_sent[face$o[5]->node[51]] 	32498333
scalar barabasi_100nodes_network.node[23].core_layer 	slots_sent[face$o[6]->node[83]] 	32887978
scalar barabasi_100nodes_network.node[23].core_layer 	slots_sent[face$o[7]->node[86]] 	32577395
scalar barabasi_100nodes_network.node[23].content_store 	p_hit[23] 	0.12771476237965
scalar barabasi_100nodes_network.node[23].content_store 	hits[23] 	274058
scalar barabasi_100nodes_network.node[23].content_store 	misses[23] 	1871802
scalar barabasi_100nodes_network.node[23].content_store 	decision_yes[23] 	1871802
scalar barabasi_100nodes_network.node[23].content_store 	decision_no[23] 	0
scalar barabasi_100nodes_network.node[23].content_store 	decision_ratio[23] 	1
scalar barabasi_100nodes_network.node[23].content_store 	"representation_breakdown[23] 0x7ffffb974538:0x7ffffb974538:0x7ffffb974538:0x7ffffb974538:0x7ffffb974538:" 	0
scalar barabasi_100nodes_network.node[23].proactive_component 	hdistance[23].proactive_component 	2.774924700582
scalar barabasi_100nodes_network.node[23].proactive_component 	downloads[23].proactive_component 	2233417
scalar barabasi_100nodes_network.node[23].proactive_component 	avg_time[23].proactive_component 	0
scalar barabasi_100nodes_network.node[24].core_layer 	interests[24] 	192588
scalar barabasi_100nodes_network.node[24].core_layer 	data[24] 	79158
scalar barabasi_100nodes_network.node[24].core_layer 	slots_sent[face$o[1]->client[24]] 	146123958
scalar barabasi_100nodes_network.node[24].core_layer 	slots_sent[face$o[2]->node[21]] 	0
scalar barabasi_100nodes_network.node[24].content_store 	p_hit[24] 	0.58897750638669
scalar barabasi_100nodes_network.node[24].content_store 	hits[24] 	113430
scalar barabasi_100nodes_network.node[24].content_store 	misses[24] 	79158
scalar barabasi_100nodes_network.node[24].content_store 	decision_yes[24] 	79158
scalar barabasi_100nodes_network.node[24].content_store 	decision_no[24] 	0
scalar barabasi_100nodes_network.node[24].content_store 	decision_ratio[24] 	1
scalar barabasi_100nodes_network.node[24].content_store 	"representation_breakdown[24] 0x7ffffb974538:0x7ffffb974538:0x7ffffb974538:0x7ffffb974538:0x7ffffb974538:" 	0
scalar barabasi_100nodes_network.node[24].proactive_component 	hdistance[24].proactive_component 	3.313354714364
scalar barabasi_100nodes_network.node[24].proactive_component 	downloads[24].proactive_component 	260979
scalar barabasi_100nodes_network.node[24].proactive_component 	avg_time[24].proactive_component 	0
scalar barabasi_100nodes_network.node[25].core_layer 	interests[25] 	279766
scalar barabasi_100nodes_network.node[25].core_layer 	data[25] 	156530
scalar barabasi_100nodes_network.node[25].core_layer 	slots_sent[face$o[1]->client[25]] 	140191064
scalar barabasi_100nodes_network.node[25].core_layer 	slots_sent[face$o[2]->node[2]] 	0
scalar barabasi_100nodes_network.node[25].core_layer 	slots_sent[face$o[3]->node[38]] 	32820555
scalar barabasi_100nodes_network.node[25].content_store 	p_hit[25] 	0.44049670081425
scalar barabasi_100nodes_network.node[25].content_store 	hits[25] 	123236
scalar barabasi_100nodes_network.node[25].content_store 	misses[25] 	156530
scalar barabasi_100nodes_network.node[25].content_store 	decision_yes[25] 	156530
scalar barabasi_100nodes_network.node[25].content_store 	decision_no[25] 	0
scalar barabasi_100nodes_network.node[25].content_store 	decision_ratio[25] 	1
scalar barabasi_100nodes_network.node[25].content_store 	"representation_breakdown[25] 0x7ffffb974538:0x7ffffb974538:0x7ffffb974538:0x7ffffb974538:0x7ffffb974538:" 	0
scalar barabasi_100nodes_network.node[25].proactive_component 	hdistance[25].proactive_component 	2.8445448034187
scalar barabasi_100nodes_network.node[25].proactive_component 	downloads[25].proactive_component 	416062
scalar barabasi_100nodes_network.node[25].proactive_component 	avg_time[25].proactive_component 	0
scalar barabasi_100nodes_network.node[26].core_layer 	interests[26] 	419624
scalar barabasi_100nodes_network.node[26].core_layer 	data[26] 	280914
scalar barabasi_100nodes_network.node[26].core_layer 	slots_sent[face$o[1]->client[26]] 	138602379
scalar barabasi_100nodes_network.node[26].core_layer 	slots_sent[face$o[2]->node[2]] 	0
scalar barabasi_100nodes_network.node[26].core_layer 	slots_sent[face$o[3]->node[77]] 	62497065
scalar barabasi_100nodes_network.node[26].core_layer 	slots_sent[face$o[4]->node[91]] 	23187554
scalar barabasi_100nodes_network.node[26].content_store 	p_hit[26] 	0.33055783272644
scalar barabasi_100nodes_network.node[26].content_store 	hits[26] 	138710
scalar barabasi_100nodes_network.node[26].content_store 	misses[26] 	280914
scalar barabasi_100nodes_network.node[26].content_store 	decision_yes[26] 	280914
scalar barabasi_100nodes_network.node[26].content_store 	decision_no[26] 	0
scalar barabasi_100nodes_network.node[26].content_store 	decision_ratio[26] 	1
scalar barabasi_100nodes_network.node[26].content_store 	"representation_breakdown[26] 0x7ffffb974538:0x7ffffb974538:0x7ffffb974538:0x7ffffb974538:0x7ffffb974538:" 	0
scalar barabasi_100nodes_network.node[26].proactive_component 	hdistance[26].proactive_component 	2.8686449477526
scalar barabasi_100nodes_network.node[26].proactive_component 	downloads[26].proactive_component 	621179
scalar barabasi_100nodes_network.node[26].proactive_component 	avg_time[26].proactive_component 	0
scalar barabasi_100nodes_network.node[27].core_layer 	interests[27] 	282052
scalar barabasi_100nodes_network.node[27].core_layer 	data[27] 	156031
scalar barabasi_100nodes_network.node[27].core_layer 	slots_sent[face$o[1]->client[27]] 	139480657
scalar barabasi_100nodes_network.node[27].core_layer 	slots_sent[face$o[2]->node[4]] 	0
scalar barabasi_100nodes_network.node[27].core_layer 	slots_sent[face$o[3]->node[99]] 	30668505
scalar barabasi_100nodes_network.node[27].content_store 	p_hit[27] 	0.44680058996213
scalar barabasi_100nodes_network.node[27].content_store 	hits[27] 	126021
scalar barabasi_100nodes_network.node[27].content_store 	misses[27] 	156031
scalar barabasi_100nodes_network.node[27].content_store 	decision_yes[27] 	156031
scalar barabasi_100nodes_network.node[27].content_store 	decision_no[27] 	0
scalar barabasi_100nodes_network.node[27].content_store 	decision_ratio[27] 	1
scalar barabasi_100nodes_network.node[27].content_store 	"representation_breakdown[27] 0x7ffffb974538:0x7ffffb974538:0x7ffffb974538:0x7ffffb974538:0x7ffffb974538:" 	0
scalar barabasi_100nodes_network.node[27].proactive_component 	hdistance[27].proactive_component 	2.6904477573333
scalar barabasi_100nodes_network.node[27].proactive_component 	downloads[27].proactive_component 	463912
scalar barabasi_100nodes_network.node[27].proactive_component 	avg_time[27].proactive_component 	0
scalar barabasi_100nodes_network.node[28].core_layer 	interests[28] 	193826
scalar barabasi_100nodes_network.node[28].core_layer 	data[28] 	80263
scalar barabasi_100nodes_network.node[28].core_layer 	slots_sent[face$o[1]->client[28]] 	142829566
scalar barabasi_100nodes_network.node[28].core_layer 	slots_sent[face$o[2]->node[0]] 	0
scalar barabasi_100nodes_network.node[28].content_store 	p_hit[28] 	0.58590178820179
scalar barabasi_100nodes_network.node[28].content_store 	hits[28] 	113563
scalar barabasi_100nodes_network.node[28].content_store 	misses[28] 	80263
scalar barabasi_100nodes_network.node[28].content_store 	decision_yes[28] 	80263
scalar barabasi_100nodes_network.node[28].content_store 	decision_no[28] 	0
scalar barabasi_100nodes_network.node[28].content_store 	decision_ratio[28] 	1
scalar barabasi_100nodes_network.node[28].content_store 	"representation_breakdown[28] 0x7ffffb974538:0x7ffffb974538:0x7ffffb974538:0x7ffffb974538:0x7ffffb974538:" 	0
scalar barabasi_100nodes_network.node[28].proactive_component 	hdistance[28].proactive_component 	3.1357854591167
scalar barabasi_100nodes_network.node[28].proactive_component 	downloads[28].proactive_component 	281606
scalar barabasi_100nodes_network.node[28].proactive_component 	avg_time[28].proactive_component 	0
scalar barabasi_100nodes_network.node[29].core_layer 	interests[29] 	193356
scalar barabasi_100nodes_network.node[29].core_layer 	data[29] 	80582
scalar barabasi_100nodes_network.node[29].core_layer 	slots_sent[face$o[1]->client[29]] 	141912474
scalar barabasi_100nodes_network.node[29].core_layer 	slots_sent[face$o[2]->node[2]] 	0
scalar barabasi_100nodes_network.node[29].content_store 	p_hit[29] 	0.5832454126068
scalar barabasi_100nodes_network.node[29].content_store 	hits[29] 	112774
scalar barabasi_100nodes_network.node[29].content_store 	misses[29] 	80582
scalar barabasi_100nodes_network.node[29].content_store 	decision_yes[29] 	80582
scalar barabasi_100nodes_network.node[29].content_store 	decision_no[29] 	0
scalar barabasi_100nodes_network.node[29].content_store 	decision_ratio[29] 	1
scalar barabasi_100nodes_network.node[29].content_store 	"representation_breakdown[29] 0x7ffffb974538:0x7ffffb974538:0x7ffffb974538:0x7ffffb974538:0x7ffffb974538:" 	0
scalar barabasi_100nodes_network.node[29].proactive_component 	hdistance[29].proactive_component 	2.8474811972595
scalar barabasi_100nodes_network.node[29].proactive_component 	downloads[29].proactive_component 	274694
scalar barabasi_100nodes_network.node[29].proactive_component 	avg_time[29].proactive_component 	0
scalar barabasi_100nodes_network.node[30].core_layer 	interests[30] 	252611
scalar barabasi_100nodes_network.node[30].core_layer 	repo_load[30] 	59628
scalar barabasi_100nodes_network.node[30].core_layer 	data[30] 	92425
scalar barabasi_100nodes_network.node[30].core_layer 	slots_sent[face$o[1]->client[30]] 	116716047
scalar barabasi_100nodes_network.node[30].core_layer 	slots_sent[face$o[2]->node[4]] 	0
scalar barabasi_100nodes_network.node[30].core_layer 	slots_sent[face$o[3]->node[88]] 	17284892
scalar barabasi_100nodes_network.node[30].content_store 	p_hit[30] 	0.39807450981945
scalar barabasi_100nodes_network.node[30].content_store 	hits[30] 	100558
scalar barabasi_100nodes_network.node[30].content_store 	misses[30] 	152053
scalar barabasi_100nodes_network.node[30].content_store 	decision_yes[30] 	92425
scalar barabasi_100nodes_network.node[30].content_store 	decision_no[30] 	59628
scalar barabasi_100nodes_network.node[30].content_store 	decision_ratio[30] 	0.60784726378302
scalar barabasi_100nodes_network.node[30].content_store 	"representation_breakdown[30] 0x7ffffb974538:0x7ffffb974538:0x7ffffb974538:0x7ffffb974538:0x7ffffb974538:" 	0
scalar barabasi_100nodes_network.node[30].proactive_component 	hdistance[30].proactive_component 	2.6086210208647
scalar barabasi_100nodes_network.node[30].proactive_component 	downloads[30].proactive_component 	322746
scalar barabasi_100nodes_network.node[30].proactive_component 	avg_time[30].proactive_component 	0
scalar barabasi_100nodes_network.node[31].core_layer 	interests[31] 	431244
scalar barabasi_100nodes_network.node[31].core_layer 	data[31] 	299626
scalar barabasi_100nodes_network.node[31].core_layer 	slots_sent[face$o[1]->client[31]] 	141106414
scalar barabasi_100nodes_network.node[31].core_layer 	slots_sent[face$o[2]->node[7]] 	0
scalar barabasi_100nodes_network.node[31].core_layer 	slots_sent[face$o[3]->node[65]] 	92571484
scalar barabasi_100nodes_network.node[31].content_store 	p_hit[31] 	0.30520540575637
scalar barabasi_100nodes_network.node[31].content_store 	hits[31] 	131618
scalar barabasi_100nodes_network.node[31].content_store 	misses[31] 	299626
scalar barabasi_100nodes_network.node[31].content_store 	decision_yes[31] 	299626
scalar barabasi_100nodes_network.node[31].content_store 	decision_no[31] 	0
scalar barabasi_100nodes_network.node[31].content_store 	decision_ratio[31] 	1
scalar barabasi_100nodes_network.node[31].content_store 	"representation_breakdown[31] 0x7ffffb974538:0x7ffffb974538:0x7ffffb974538:0x7ffffb974538:0x7ffffb974538:" 	0
scalar barabasi_100nodes_network.node[31].proactive_component 	hdistance[31].proactive_component 	3.0856300802067
scalar barabasi_100nodes_network.node[31].proactive_component 	downloads[31].proactive_component 	520156
scalar barabasi_100nodes_network.node[31].proactive_component 	avg_time[31].proactive_component 	0
scalar barabasi_100nodes_network.node[32].core_layer 	interests[32] 	341393
scalar barabasi_100nodes_network.node[32].core_layer 	data[32] 	208383
scalar barabasi_100nodes_network.node[32].core_layer 	slots_sent[face$o[1]->client[32]] 	139745204
scalar barabasi_100nodes_network.node[32].core_layer 	slots_sent[face$o[2]->node[2]] 	0
scalar barabasi_100nodes_network.node[32].core_layer 	slots_sent[face$o[3]->node[43]] 	24041133
scalar barabasi_100nodes_network.node[32].core_layer 	slots_sent[face$o[4]->node[64]] 	32791973
scalar barabasi_100nodes_network.node[32].content_store 	p_hit[32] 	0.38960962878559
scalar barabasi_100nodes_network.node[32].content_store 	hits[32] 	133010
scalar barabasi_100nodes_network.node[32].content_store 	misses[32] 	208383
scalar barabasi_100nodes_network.node[32].content_store 	decision_yes[32] 	208383
scalar barabasi_100nodes_network.node[32].content_store 	decision_no[32] 	0
scalar barabasi_100nodes_network.node[32].content_store 	decision_ratio[32] 	1
[...]
scalar barabasi_100nodes_network.client[8] 	avg_time[8].real 	0
scalar barabasi_100nodes_network.client[9] 	hdistance[9].real 	1.6108702882483
scalar barabasi_100nodes_network.client[9] 	downloads[9].real 	180400
scalar barabasi_100nodes_network.client[9] 	avg_time[9].real 	0
scalar barabasi_100nodes_network.client[10] 	hdistance[10].real 	1.4034271617503
scalar barabasi_100nodes_network.client[10] 	downloads[10].real 	180791
scalar barabasi_100nodes_network.client[10] 	avg_time[10].real 	0
scalar barabasi_100nodes_network.client[11] 	hdistance[11].real 	1.3834298114653
scalar barabasi_100nodes_network.client[11] 	downloads[11].real 	180179
scalar barabasi_100nodes_network.client[11] 	avg_time[11].real 	0
scalar barabasi_100nodes_network.client[12] 	hdistance[12].real 	1.3975413495234
scalar barabasi_100nodes_network.client[12] 	downloads[12].real 	179204
scalar barabasi_100nodes_network.client[12] 	avg_time[12].real 	0
scalar barabasi_100nodes_network.client[13] 	hdistance[13].real 	1.3401631147359
scalar barabasi_100nodes_network.client[13] 	downloads[13].real 	179996
scalar barabasi_100nodes_network.client[13] 	avg_time[13].real 	0
scalar barabasi_100nodes_network.client[14] 	hdistance[14].real 	1.4792259944825
scalar barabasi_100nodes_network.client[14] 	downloads[14].real 	179792
scalar barabasi_100nodes_network.client[14] 	avg_time[14].real 	0
scalar barabasi_100nodes_network.client[15] 	hdistance[15].real 	1.4365838643662
scalar barabasi_100nodes_network.client[15] 	downloads[15].real 	180309
scalar barabasi_100nodes_network.client[15] 	avg_time[15].real 	0
scalar barabasi_100nodes_network.client[16] 	hdistance[16].real 	1.3068687430478
scalar barabasi_100nodes_network.client[16] 	downloads[16].real 	179800
scalar barabasi_100nodes_network.client[16] 	avg_time[16].real 	0
scalar barabasi_100nodes_network.client[17] 	hdistance[17].real 	1.4879381277309
scalar barabasi_100nodes_network.client[17] 	downloads[17].real 	180113
scalar barabasi_100nodes_network.client[17] 	avg_time[17].real 	0
scalar barabasi_100nodes_network.client[18] 	hdistance[18].real 	1.3203960000444
scalar barabasi_100nodes_network.client[18] 	downloads[18].real 	180202
scalar barabasi_100nodes_network.client[18] 	avg_time[18].real 	0
scalar barabasi_100nodes_network.client[19] 	hdistance[19].real 	1.4570789304624
scalar barabasi_100nodes_network.client[19] 	downloads[19].real 	180564
scalar barabasi_100nodes_network.client[19] 	avg_time[19].real 	0
scalar barabasi_100nodes_network.client[20] 	hdistance[20].real 	1.3261954480749
scalar barabasi_100nodes_network.client[20] 	downloads[20].real 	180539
scalar barabasi_100nodes_network.client[20] 	avg_time[20].real 	0
scalar barabasi_100nodes_network.client[21] 	hdistance[21].real 	1.4361475700603
scalar barabasi_100nodes_network.client[21] 	downloads[21].real 	180416
scalar barabasi_100nodes_network.client[21] 	avg_time[21].real 	0
scalar barabasi_100nodes_network.client[22] 	hdistance[22].real 	1.3927387599831
scalar barabasi_100nodes_network.client[22] 	downloads[22].real 	179804
scalar barabasi_100nodes_network.client[22] 	avg_time[22].real 	0
scalar barabasi_100nodes_network.client[23] 	hdistance[23].real 	1.5535476835599
scalar barabasi_100nodes_network.client[23] 	downloads[23].real 	179737
scalar barabasi_100nodes_network.client[23] 	avg_time[23].real 	0
scalar barabasi_100nodes_network.client[24] 	hdistance[24].real 	1.6087784247012
scalar barabasi_100nodes_network.client[24] 	downloads[24].real 	180169
scalar barabasi_100nodes_network.client[24] 	avg_time[24].real 	0
scalar barabasi_100nodes_network.client[25] 	hdistance[25].real 	1.29927060013
scalar barabasi_100nodes_network.client[25] 	downloads[25].real 	180011
scalar barabasi_100nodes_network.client[25] 	avg_time[25].real 	0
scalar barabasi_100nodes_network.client[26] 	hdistance[26].real 	1.326146181988
scalar barabasi_100nodes_network.client[26] 	downloads[26].real 	179858
scalar barabasi_100nodes_network.client[26] 	avg_time[26].real 	0
scalar barabasi_100nodes_network.client[27] 	hdistance[27].real 	1.3227031635828
scalar barabasi_100nodes_network.client[27] 	downloads[27].real 	180618
scalar barabasi_100nodes_network.client[27] 	avg_time[27].real 	0
scalar barabasi_100nodes_network.client[28] 	hdistance[28].real 	1.3812623110001
scalar barabasi_100nodes_network.client[28] 	downloads[28].real 	180225
scalar barabasi_100nodes_network.client[28] 	avg_time[28].real 	0
scalar barabasi_100nodes_network.client[29] 	hdistance[29].real 	1.2592897146413
scalar barabasi_100nodes_network.client[29] 	downloads[29].real 	179984
scalar barabasi_100nodes_network.client[29] 	avg_time[29].real 	0
scalar barabasi_100nodes_network.client[30] 	hdistance[30].real 	1.117850219479
scalar barabasi_100nodes_network.client[30] 	downloads[30].real 	179516
scalar barabasi_100nodes_network.client[30] 	avg_time[30].real 	0
scalar barabasi_100nodes_network.client[31] 	hdistance[31].real 	1.4559849764423
scalar barabasi_100nodes_network.client[31] 	downloads[31].real 	179984
scalar barabasi_100nodes_network.client[31] 	avg_time[31].real 	0
scalar barabasi_100nodes_network.client[32] 	hdistance[32].real 	1.308242952514
scalar barabasi_100nodes_network.client[32] 	downloads[32].real 	180348
scalar barabasi_100nodes_network.client[32] 	avg_time[32].real 	0
scalar barabasi_100nodes_network.client[33] 	hdistance[33].real 	1.263030471685
scalar barabasi_100nodes_network.client[33] 	downloads[33].real 	179675
scalar barabasi_100nodes_network.client[33] 	avg_time[33].real 	0
scalar barabasi_100nodes_network.client[34] 	hdistance[34].real 	1.268240653297
scalar barabasi_100nodes_network.client[34] 	downloads[34].real 	180010
scalar barabasi_100nodes_network.client[34] 	avg_time[34].real 	0
scalar barabasi_100nodes_network.client[35] 	hdistance[35].real 	1.6616366866533
scalar barabasi_100nodes_network.client[35] 	downloads[35].real 	180120
scalar barabasi_100nodes_network.client[35] 	avg_time[35].real 	0
scalar barabasi_100nodes_network.client[36] 	hdistance[36].real 	1.2870502597727
scalar barabasi_100nodes_network.client[36] 	downloads[36].real 	179965
scalar barabasi_100nodes_network.client[36] 	avg_time[36].real 	0
scalar barabasi_100nodes_network.client[37] 	hdistance[37].real 	1.3894453904972
scalar barabasi_100nodes_network.client[37] 	downloads[37].real 	179694
scalar barabasi_100nodes_network.client[37] 	avg_time[37].real 	0
scalar barabasi_100nodes_network.client[38] 	hdistance[38].real 	1.5291393413037
scalar barabasi_100nodes_network.client[38] 	downloads[38].real 	180083
scalar barabasi_100nodes_network.client[38] 	avg_time[38].real 	0
scalar barabasi_100nodes_network.client[39] 	hdistance[39].real 	1.5223594086455
scalar barabasi_100nodes_network.client[39] 	downloads[39].real 	179723
scalar barabasi_100nodes_network.client[39] 	avg_time[39].real 	0
scalar barabasi_100nodes_network.client[40] 	hdistance[40].real 	1.6065789767525
scalar barabasi_100nodes_network.client[40] 	downloads[40].real 	179116
scalar barabasi_100nodes_network.client[40] 	avg_time[40].real 	0
scalar barabasi_100nodes_network.client[41] 	hdistance[41].real 	1.3311725495211
scalar barabasi_100nodes_network.client[41] 	downloads[41].real 	179873
scalar barabasi_100nodes_network.client[41] 	avg_time[41].real 	0
scalar barabasi_100nodes_network.client[42] 	hdistance[42].real 	1.3983341445069
scalar barabasi_100nodes_network.client[42] 	downloads[42].real 	180808
scalar barabasi_100nodes_network.client[42] 	avg_time[42].real 	0
scalar barabasi_100nodes_network.client[43] 	hdistance[43].real 	1.4069374506731
scalar barabasi_100nodes_network.client[43] 	downloads[43].real 	179922
scalar barabasi_100nodes_network.client[43] 	avg_time[43].real 	0
scalar barabasi_100nodes_network.client[44] 	hdistance[44].real 	1.3793877687126
scalar barabasi_100nodes_network.client[44] 	downloads[44].real 	179932
scalar barabasi_100nodes_network.client[44] 	avg_time[44].real 	0
scalar barabasi_100nodes_network.client[45] 	hdistance[45].real 	1.2524461076677
scalar barabasi_100nodes_network.client[45] 	downloads[45].real 	179571
scalar barabasi_100nodes_network.client[45] 	avg_time[45].real 	0
scalar barabasi_100nodes_network.client[46] 	hdistance[46].real 	1.768057325018
scalar barabasi_100nodes_network.client[46] 	downloads[46].real 	179747
scalar barabasi_100nodes_network.client[46] 	avg_time[46].real 	0
scalar barabasi_100nodes_network.client[47] 	hdistance[47].real 	1.5589702754174
scalar barabasi_100nodes_network.client[47] 	downloads[47].real 	179582
scalar barabasi_100nodes_network.client[47] 	avg_time[47].real 	0
scalar barabasi_100nodes_network.client[48] 	hdistance[48].real 	1.3086511855782
scalar barabasi_100nodes_network.client[48] 	downloads[48].real 	179617
scalar barabasi_100nodes_network.client[48] 	avg_time[48].real 	0
scalar barabasi_100nodes_network.client[49] 	hdistance[49].real 	1.1786508648802
scalar barabasi_100nodes_network.client[49] 	downloads[49].real 	179389
scalar barabasi_100nodes_network.client[49] 	avg_time[49].real 	0
scalar barabasi_100nodes_network.client[50] 	hdistance[50].real 	1.8565230692216
scalar barabasi_100nodes_network.client[50] 	downloads[50].real 	179785
scalar barabasi_100nodes_network.client[50] 	avg_time[50].real 	0
scalar barabasi_100nodes_network.client[51] 	hdistance[51].real 	1.5656695132982
scalar barabasi_100nodes_network.client[51] 	downloads[51].real 	180213
scalar barabasi_100nodes_network.client[51] 	avg_time[51].real 	0
scalar barabasi_100nodes_network.client[52] 	hdistance[52].real 	1.520084437408
scalar barabasi_100nodes_network.client[52] 	downloads[52].real 	180015
scalar barabasi_100nodes_network.client[52] 	avg_time[52].real 	0
scalar barabasi_100nodes_network.client[53] 	hdistance[53].real 	1.4979158329998
scalar barabasi_100nodes_network.client[53] 	downloads[53].real 	179928
scalar barabasi_100nodes_network.client[53] 	avg_time[53].real 	0
scalar barabasi_100nodes_network.client[54] 	hdistance[54].real 	1.4326237599083
scalar barabasi_100nodes_network.client[54] 	downloads[54].real 	180531
scalar barabasi_100nodes_network.client[54] 	avg_time[54].real 	0
scalar barabasi_100nodes_network.client[55] 	hdistance[55].real 	1.3962786662811
scalar barabasi_100nodes_network.client[55] 	downloads[55].real 	179828
scalar barabasi_100nodes_network.client[55] 	avg_time[55].real 	0
scalar barabasi_100nodes_network.client[56] 	hdistance[56].real 	1.5995805611802
scalar barabasi_100nodes_network.client[56] 	downloads[56].real 	179764
scalar barabasi_100nodes_network.client[56] 	avg_time[56].real 	0
scalar barabasi_100nodes_network.client[57] 	hdistance[57].real 	1.6105236852335
scalar barabasi_100nodes_network.client[57] 	downloads[57].real 	180070
scalar barabasi_100nodes_network.client[57] 	avg_time[57].real 	0
scalar barabasi_100nodes_network.client[58] 	hdistance[58].real 	1.4141941014707
scalar barabasi_100nodes_network.client[58] 	downloads[58].real 	179638
scalar barabasi_100nodes_network.client[58] 	avg_time[58].real 	0
scalar barabasi_100nodes_network.client[59] 	hdistance[59].real 	1.2666945070854
scalar barabasi_100nodes_network.client[59] 	downloads[59].real 	179595
scalar barabasi_100nodes_network.client[59] 	avg_time[59].real 	0
scalar barabasi_100nodes_network.client[60] 	hdistance[60].real 	1.4611815633932
scalar barabasi_100nodes_network.client[60] 	downloads[60].real 	180185
scalar barabasi_100nodes_network.client[60] 	avg_time[60].real 	0
scalar barabasi_100nodes_network.client[61] 	hdistance[61].real 	1.4894552917684
scalar barabasi_100nodes_network.client[61] 	downloads[61].real 	180280
scalar barabasi_100nodes_network.client[61] 	avg_time[61].real 	0
scalar barabasi_100nodes_network.client[62] 	hdistance[62].real 	1.3144161847129
scalar barabasi_100nodes_network.client[62] 	downloads[62].real 	179132
scalar barabasi_100nodes_network.client[62] 	avg_time[62].real 	0
scalar barabasi_100nodes_network.client[63] 	hdistance[63].real 	1.6043979220318
scalar barabasi_100nodes_network.client[63] 	downloads[63].real 	180176
scalar barabasi_100nodes_network.client[63] 	avg_time[63].real 	0
scalar barabasi_100nodes_network.client[64] 	hdistance[64].real 	1.4960679003757
scalar barabasi_100nodes_network.client[64] 	downloads[64].real 	179675
scalar barabasi_100nodes_network.client[64] 	avg_time[64].real 	0
scalar barabasi_100nodes_network.client[65] 	hdistance[65].real 	1.7317708477351
scalar barabasi_100nodes_network.client[65] 	downloads[65].real 	180823
scalar barabasi_100nodes_network.client[65] 	avg_time[65].real 	0
scalar barabasi_100nodes_network.client[66] 	hdistance[66].real 	1.4787677307437
scalar barabasi_100nodes_network.client[66] 	downloads[66].real 	179279
scalar barabasi_100nodes_network.client[66] 	avg_time[66].real 	0
scalar barabasi_100nodes_network.client[67] 	hdistance[67].real 	1.495419547324
scalar barabasi_100nodes_network.client[67] 	downloads[67].real 	180659
scalar barabasi_100nodes_network.client[67] 	avg_time[67].real 	0
scalar barabasi_100nodes_network.client[68] 	hdistance[68].real 	1.2831456190138
scalar barabasi_100nodes_network.client[68] 	downloads[68].real 	180416
scalar barabasi_100nodes_network.client[68] 	avg_time[68].real 	0
scalar barabasi_100nodes_network.client[69] 	hdistance[69].real 	1.3949554171247
scalar barabasi_100nodes_network.client[69] 	downloads[69].real 	180114
scalar barabasi_100nodes_network.client[69] 	avg_time[69].real 	0
scalar barabasi_100nodes_network.client[70] 	hdistance[70].real 	1.6067895645992
scalar barabasi_100nodes_network.client[70] 	downloads[70].real 	180041
scalar barabasi_100nodes_network.client[70] 	avg_time[70].real 	0
scalar barabasi_100nodes_network.client[71] 	hdistance[71].real 	1.6294683852409
scalar barabasi_100nodes_network.client[71] 	downloads[71].real 	180770
scalar barabasi_100nodes_network.client[71] 	avg_time[71].real 	0
scalar barabasi_100nodes_network.client[72] 	hdistance[72].real 	1.4991092982602
scalar barabasi_100nodes_network.client[72] 	downloads[72].real 	180195
scalar barabasi_100nodes_network.client[72] 	avg_time[72].real 	0
scalar barabasi_100nodes_network.client[73] 	hdistance[73].real 	1.410988437026
scalar barabasi_100nodes_network.client[73] 	downloads[73].real 	179971
scalar barabasi_100nodes_network.client[73] 	avg_time[73].real 	0
scalar barabasi_100nodes_network.client[74] 	hdistance[74].real 	1.3027313439454
scalar barabasi_100nodes_network.client[74] 	downloads[74].real 	180424
scalar barabasi_100nodes_network.client[74] 	avg_time[74].real 	0
scalar barabasi_100nodes_network.client[75] 	hdistance[75].real 	1.5228936813217
scalar barabasi_100nodes_network.client[75] 	downloads[75].real 	180006
scalar barabasi_100nodes_network.client[75] 	avg_time[75].real 	0
scalar barabasi_100nodes_network.client[76] 	hdistance[76].real 	1.6303073044502
scalar barabasi_100nodes_network.client[76] 	downloads[76].real 	180082
scalar barabasi_100nodes_network.client[76] 	avg_time[76].real 	0
scalar barabasi_100nodes_network.client[77] 	hdistance[77].real 	1.5583720040584
scalar barabasi_100nodes_network.client[77] 	downloads[77].real 	180369
scalar barabasi_100nodes_network.client[77] 	avg_time[77].real 	0
scalar barabasi_100nodes_network.client[78] 	hdistance[78].real 	1.5822936459732
scalar barabasi_100nodes_network.client[78] 	downloads[78].real 	179461
scalar barabasi_100nodes_network.client[78] 	avg_time[78].real 	0
scalar barabasi_100nodes_network.client[79] 	hdistance[79].real 	1.2652819880742
scalar barabasi_100nodes_network.client[79] 	downloads[79].real 	180114
scalar barabasi_100nodes_network.client[79] 	avg_time[79].real 	0
scalar barabasi_100nodes_network.client[80] 	hdistance[80].real 	1.5976195494227
scalar barabasi_100nodes_network.client[80] 	downloads[80].real 	180302
scalar barabasi_100nodes_network.client[80] 	avg_time[80].real 	0
scalar barabasi_100nodes_network.client[81] 	hdistance[81].real 	1.7442763355217
scalar barabasi_100nodes_network.client[81] 	downloads[81].real 	180042
scalar barabasi_100nodes_network.client[81] 	avg_time[81].real 	0
scalar barabasi_100nodes_network.client[82] 	hdistance[82].real 	1.7361037923709
scalar barabasi_100nodes_network.client[82] 	downloads[82].real 	180283
scalar barabasi_100nodes_network.client[82] 	avg_time[82].real 	0
scalar barabasi_100nodes_network.client[83] 	hdistance[83].real 	1.5577565088905
scalar barabasi_100nodes_network.client[83] 	downloads[83].real 	180023
scalar barabasi_100nodes_network.client[83] 	avg_time[83].real 	0
scalar barabasi_100nodes_network.client[84] 	hdistance[84].real 	1.5824156246172
scalar barabasi_100nodes_network.client[84] 	downloads[84].real 	179614
scalar barabasi_100nodes_network.client[84] 	avg_time[84].real 	0
scalar barabasi_100nodes_network.client[85] 	hdistance[85].real 	1.2580375667377
scalar barabasi_100nodes_network.client[85] 	downloads[85].real 	180745
scalar barabasi_100nodes_network.client[85] 	avg_time[85].real 	0
scalar barabasi_100nodes_network.client[86] 	hdistance[86].real 	1.5599692807693
scalar barabasi_100nodes_network.client[86] 	downloads[86].real 	179692
scalar barabasi_100nodes_network.client[86] 	avg_time[86].real 	0
scalar barabasi_100nodes_network.client[87] 	hdistance[87].real 	1.7454174251268
scalar barabasi_100nodes_network.client[87] 	downloads[87].real 	180739
scalar barabasi_100nodes_network.client[87] 	avg_time[87].real 	0
scalar barabasi_100nodes_network.client[88] 	hdistance[88].real 	1.0334018785083
scalar barabasi_100nodes_network.client[88] 	downloads[88].real 	179930
scalar barabasi_100nodes_network.client[88] 	avg_time[88].real 	0
scalar barabasi_100nodes_network.client[89] 	hdistance[89].real 	1.5905743168185
scalar barabasi_100nodes_network.client[89] 	downloads[89].real 	180040
scalar barabasi_100nodes_network.client[89] 	avg_time[89].real 	0
scalar barabasi_100nodes_network.client[90] 	hdistance[90].real 	1.1806114262
scalar barabasi_100nodes_network.client[90] 	downloads[90].real 	180725
scalar barabasi_100nodes_network.client[90] 	avg_time[90].real 	0
scalar barabasi_100nodes_network.client[91] 	hdistance[91].real 	1.286051299171
scalar barabasi_100nodes_network.client[91] 	downloads[91].real 	179730
scalar barabasi_100nodes_network.client[91] 	avg_time[91].real 	0
scalar barabasi_100nodes_network.client[92] 	hdistance[92].real 	1.7698342535293
scalar barabasi_100nodes_network.client[92] 	downloads[92].real 	179853
scalar barabasi_100nodes_network.client[92] 	avg_time[92].real 	0
scalar barabasi_100nodes_network.client[93] 	hdistance[93].real 	1.3793521997938
scalar barabasi_100nodes_network.client[93] 	downloads[93].real 	180426
scalar barabasi_100nodes_network.client[93] 	avg_time[93].real 	0
scalar barabasi_100nodes_network.client[94] 	hdistance[94].real 	1.6230932837061
scalar barabasi_100nodes_network.client[94] 	downloads[94].real 	180546
scalar barabasi_100nodes_network.client[94] 	avg_time[94].real 	0
scalar barabasi_100nodes_network.client[95] 	hdistance[95].real 	1.8815640095274
scalar barabasi_100nodes_network.client[95] 	downloads[95].real 	179692
scalar barabasi_100nodes_network.client[95] 	avg_time[95].real 	0
scalar barabasi_100nodes_network.client[96] 	hdistance[96].real 	1.7716461308794
scalar barabasi_100nodes_network.client[96] 	downloads[96].real 	179524
scalar barabasi_100nodes_network.client[96] 	avg_time[96].real 	0
scalar barabasi_100nodes_network.client[97] 	hdistance[97].real 	1.6303796062314
scalar barabasi_100nodes_network.client[97] 	downloads[97].real 	180055
scalar barabasi_100nodes_network.client[97] 	avg_time[97].real 	0
scalar barabasi_100nodes_network.client[98] 	hdistance[98].real 	1.8829895990755
scalar barabasi_100nodes_network.client[98] 	downloads[98].real 	179984
scalar barabasi_100nodes_network.client[98] 	avg_time[98].real 	0
scalar barabasi_100nodes_network.client[99] 	hdistance[99].real 	1.5512618078063
scalar barabasi_100nodes_network.client[99] 	downloads[99].real 	180495
scalar barabasi_100nodes_network.client[99] 	avg_time[99].real 	0
