version 2
run General-1-20150724-11:05:40-27620
attr C 1e4
attr D lce
attr F spr
attr R partitionedn
attr a 1
attr brates 0.3_0.7_1.5_2.5_3.5
attr configname General
attr ctlg 1e6
attr datetime 20150724-11:05:40
attr experiment General
attr inifile omnetpp.ini
attr iterationvars "$net=barabasi_100nodes, $rep=1, $lambda=100, $a=1, $ctlg=1e6, $brates=0.3_0.7_1.5_2.5_3.5, $F=spr, $ttl=1000, $D=lce, $R=partitionedn, $C=1e4, $window=60, $variance=0.05, $mytime=1800"
attr iterationvars2 "$net=barabasi_100nodes, $rep=1, $lambda=100, $a=1, $ctlg=1e6, $brates=0.3_0.7_1.5_2.5_3.5, $F=spr, $ttl=1000, $D=lce, $R=partitionedn, $C=1e4, $window=60, $variance=0.05, $mytime=1800, $repetition=0"
attr lambda 100
attr measurement "$net=barabasi_100nodes, $rep=1, $lambda=100, $a=1, $ctlg=1e6, $brates=0.3_0.7_1.5_2.5_3.5, $F=spr, $ttl=1000, $D=lce, $R=partitionedn, $C=1e4, $window=60, $variance=0.05, $mytime=1800"
attr mytime 1800
attr net barabasi_100nodes
attr network networks.${net=barabasi_100nodes}_network
attr processid 27620
attr rep 1
attr repetition 0
attr replication #0
attr resultdir results
attr runnumber 1
attr seedset 1
attr ttl 1000
attr variance 0.05
attr window 60

scalar . 	C 	1e4
scalar . 	a 	1
scalar . 	ctlg 	1e6
scalar . 	lambda 	100
scalar . 	mytime 	1800
scalar . 	rep 	1
scalar . 	ttl 	1000
scalar . 	variance 	0.05
scalar . 	window 	60
scalar barabasi_100nodes_network.content_distribution 	repo-0 	46
scalar barabasi_100nodes_network.content_distribution 	repo-1 	55
scalar barabasi_100nodes_network.content_distribution 	repo-2 	69
scalar barabasi_100nodes_network.content_distribution 	repo-3 	1
scalar barabasi_100nodes_network.content_distribution 	repo-4 	87
scalar barabasi_100nodes_network.content_distribution 	repo-5 	72
scalar barabasi_100nodes_network.content_distribution 	repo-6 	50
scalar barabasi_100nodes_network.content_distribution 	repo-7 	9
scalar barabasi_100nodes_network.content_distribution 	repo-8 	58
scalar barabasi_100nodes_network.content_distribution 	repo-9 	94
scalar barabasi_100nodes_network.content_distribution 	repo-10 	57
scalar barabasi_100nodes_network.content_distribution 	repo-11 	36
scalar barabasi_100nodes_network.content_distribution 	repo-12 	44
scalar barabasi_100nodes_network.content_distribution 	repo-13 	38
scalar barabasi_100nodes_network.content_distribution 	repo-14 	52
scalar barabasi_100nodes_network.content_distribution 	repo-15 	3
scalar barabasi_100nodes_network.content_distribution 	repo-16 	0
scalar barabasi_100nodes_network.content_distribution 	repo-17 	21
scalar barabasi_100nodes_network.content_distribution 	repo-18 	73
scalar barabasi_100nodes_network.content_distribution 	repo-19 	56
scalar barabasi_100nodes_network.content_distribution 	repo-20 	66
scalar barabasi_100nodes_network.content_distribution 	repo-21 	30
scalar barabasi_100nodes_network.content_distribution 	repo-22 	8
scalar barabasi_100nodes_network.content_distribution 	repo-23 	49
scalar barabasi_100nodes_network.content_distribution 	repo-24 	32
scalar barabasi_100nodes_network.content_distribution 	repo-25 	40
scalar barabasi_100nodes_network.content_distribution 	repo-26 	42
scalar barabasi_100nodes_network.content_distribution 	repo-27 	45
scalar barabasi_100nodes_network.content_distribution 	repo-28 	33
scalar barabasi_100nodes_network.content_distribution 	repo-29 	28
scalar barabasi_100nodes_network.content_distribution 	repo-30 	79
scalar barabasi_100nodes_network.content_distribution 	repo-31 	98
scalar barabasi_100nodes_network.content_distribution 	repo-32 	95
scalar barabasi_100nodes_network.content_distribution 	repo-33 	17
scalar barabasi_100nodes_network.content_distribution 	repo-34 	81
scalar barabasi_100nodes_network.content_distribution 	repo-35 	89
scalar barabasi_100nodes_network.content_distribution 	repo-36 	59
scalar barabasi_100nodes_network.content_distribution 	repo-37 	48
scalar barabasi_100nodes_network.content_distribution 	repo-38 	76
scalar barabasi_100nodes_network.content_distribution 	repo-39 	23
scalar barabasi_100nodes_network.content_distribution 	repo-40 	22
scalar barabasi_100nodes_network.content_distribution 	repo-41 	67
scalar barabasi_100nodes_network.content_distribution 	repo-42 	62
scalar barabasi_100nodes_network.content_distribution 	repo-43 	75
scalar barabasi_100nodes_network.content_distribution 	repo-44 	70
scalar barabasi_100nodes_network.content_distribution 	repo-45 	71
scalar barabasi_100nodes_network.content_distribution 	repo-46 	82
scalar barabasi_100nodes_network.content_distribution 	repo-47 	53
scalar barabasi_100nodes_network.content_distribution 	repo-48 	85
scalar barabasi_100nodes_network.content_distribution 	repo-49 	91
scalar barabasi_100nodes_network.content_distribution 	repo-50 	51
scalar barabasi_100nodes_network.content_distribution 	repo-51 	37
scalar barabasi_100nodes_network.content_distribution 	repo-52 	54
scalar barabasi_100nodes_network.content_distribution 	repo-53 	96
scalar barabasi_100nodes_network.content_distribution 	repo-54 	4
scalar barabasi_100nodes_network.content_distribution 	repo-55 	31
scalar barabasi_100nodes_network.content_distribution 	repo-56 	78
scalar barabasi_100nodes_network.content_distribution 	repo-57 	68
scalar barabasi_100nodes_network.content_distribution 	repo-58 	39
scalar barabasi_100nodes_network.content_distribution 	repo-59 	27
scalar barabasi_100nodes_network.content_distribution 	repo-60 	97
scalar barabasi_100nodes_network.content_distribution 	repo-61 	60
scalar barabasi_100nodes_network.content_distribution 	repo-62 	43
scalar barabasi_100nodes_network.content_distribution 	repo-63 	86
scalar barabasi_100nodes_network.content_distribution 	repo-64 	15
scalar barabasi_100nodes_network.content_distribution 	repo-65 	13
scalar barabasi_100nodes_network.content_distribution 	repo-66 	10
scalar barabasi_100nodes_network.content_distribution 	repo-67 	7
scalar barabasi_100nodes_network.content_distribution 	repo-68 	63
scalar barabasi_100nodes_network.content_distribution 	repo-69 	64
scalar barabasi_100nodes_network.content_distribution 	repo-70 	35
scalar barabasi_100nodes_network.content_distribution 	repo-71 	65
scalar barabasi_100nodes_network.content_distribution 	repo-72 	74
scalar barabasi_100nodes_network.content_distribution 	repo-73 	20
scalar barabasi_100nodes_network.content_distribution 	repo-74 	80
scalar barabasi_100nodes_network.content_distribution 	repo-75 	41
scalar barabasi_100nodes_network.content_distribution 	repo-76 	25
scalar barabasi_100nodes_network.content_distribution 	repo-77 	5
scalar barabasi_100nodes_network.content_distribution 	repo-78 	24
scalar barabasi_100nodes_network.content_distribution 	repo-79 	29
scalar barabasi_100nodes_network.content_distribution 	repo-80 	93
scalar barabasi_100nodes_network.content_distribution 	repo-81 	61
scalar barabasi_100nodes_network.content_distribution 	repo-82 	2
scalar barabasi_100nodes_network.content_distribution 	repo-83 	19
scalar barabasi_100nodes_network.content_distribution 	repo-84 	99
scalar barabasi_100nodes_network.content_distribution 	repo-85 	16
scalar barabasi_100nodes_network.content_distribution 	repo-86 	90
scalar barabasi_100nodes_network.content_distribution 	repo-87 	77
scalar barabasi_100nodes_network.content_distribution 	repo-88 	12
scalar barabasi_100nodes_network.content_distribution 	repo-89 	26
scalar barabasi_100nodes_network.content_distribution 	repo-90 	34
scalar barabasi_100nodes_network.content_distribution 	repo-91 	88
scalar barabasi_100nodes_network.content_distribution 	repo-92 	18
scalar barabasi_100nodes_network.content_distribution 	repo-93 	83
scalar barabasi_100nodes_network.content_distribution 	repo-94 	84
scalar barabasi_100nodes_network.content_distribution 	repo-95 	92
scalar barabasi_100nodes_network.content_distribution 	repo-96 	14
scalar barabasi_100nodes_network.content_distribution 	repo-97 	6
scalar barabasi_100nodes_network.content_distribution 	repo-98 	47
scalar barabasi_100nodes_network.content_distribution 	repo-99 	11
scalar barabasi_100nodes_network.content_distribution 	client-0 	3
scalar barabasi_100nodes_network.content_distribution 	client-1 	71
scalar barabasi_100nodes_network.content_distribution 	client-2 	78
scalar barabasi_100nodes_network.content_distribution 	client-3 	12
scalar barabasi_100nodes_network.content_distribution 	client-4 	7
scalar barabasi_100nodes_network.content_distribution 	client-5 	81
scalar barabasi_100nodes_network.content_distribution 	client-6 	86
scalar barabasi_100nodes_network.content_distribution 	client-7 	80
scalar barabasi_100nodes_network.content_distribution 	client-8 	79
scalar barabasi_100nodes_network.content_distribution 	client-9 	64
scalar barabasi_100nodes_network.content_distribution 	client-10 	10
scalar barabasi_100nodes_network.content_distribution 	client-11 	31
scalar barabasi_100nodes_network.content_distribution 	client-12 	45
scalar barabasi_100nodes_network.content_distribution 	client-13 	39
scalar barabasi_100nodes_network.content_distribution 	client-14 	84
scalar barabasi_100nodes_network.content_distribution 	client-15 	95
scalar barabasi_100nodes_network.content_distribution 	client-16 	48
scalar barabasi_100nodes_network.content_distribution 	client-17 	29
scalar barabasi_100nodes_network.content_distribution 	client-18 	43
scalar barabasi_100nodes_network.content_distribution 	client-19 	0
scalar barabasi_100nodes_network.content_distribution 	client-20 	8
scalar barabasi_100nodes_network.content_distribution 	client-21 	57
scalar barabasi_100nodes_network.content_distribution 	client-22 	38
scalar barabasi_100nodes_network.content_distribution 	client-23 	90
scalar barabasi_100nodes_network.content_distribution 	client-24 	54
scalar barabasi_100nodes_network.content_distribution 	client-25 	24
scalar barabasi_100nodes_network.content_distribution 	client-26 	52
scalar barabasi_100nodes_network.content_distribution 	client-27 	67
scalar barabasi_100nodes_network.content_distribution 	client-28 	44
scalar barabasi_100nodes_network.content_distribution 	client-29 	82
scalar barabasi_100nodes_network.content_distribution 	client-30 	14
scalar barabasi_100nodes_network.content_distribution 	client-31 	49
scalar barabasi_100nodes_network.content_distribution 	client-32 	6
scalar barabasi_100nodes_network.content_distribution 	client-33 	91
scalar barabasi_100nodes_network.content_distribution 	client-34 	60
scalar barabasi_100nodes_network.content_distribution 	client-35 	75
scalar barabasi_100nodes_network.content_distribution 	client-36 	59
scalar barabasi_100nodes_network.content_distribution 	client-37 	32
scalar barabasi_100nodes_network.content_distribution 	client-38 	15
scalar barabasi_100nodes_network.content_distribution 	client-39 	85
scalar barabasi_100nodes_network.content_distribution 	client-40 	62
scalar barabasi_100nodes_network.content_distribution 	client-41 	16
scalar barabasi_100nodes_network.content_distribution 	client-42 	21
scalar barabasi_100nodes_network.content_distribution 	client-43 	70
scalar barabasi_100nodes_network.content_distribution 	client-44 	5
scalar barabasi_100nodes_network.content_distribution 	client-45 	65
scalar barabasi_100nodes_network.content_distribution 	client-46 	30
scalar barabasi_100nodes_network.content_distribution 	client-47 	35
scalar barabasi_100nodes_network.content_distribution 	client-48 	46
scalar barabasi_100nodes_network.content_distribution 	client-49 	55
scalar barabasi_100nodes_network.content_distribution 	client-50 	2
scalar barabasi_100nodes_network.content_distribution 	client-51 	88
scalar barabasi_100nodes_network.content_distribution 	client-52 	41
scalar barabasi_100nodes_network.content_distribution 	client-53 	93
scalar barabasi_100nodes_network.content_distribution 	client-54 	69
scalar barabasi_100nodes_network.content_distribution 	client-55 	94
scalar barabasi_100nodes_network.content_distribution 	client-56 	56
scalar barabasi_100nodes_network.content_distribution 	client-57 	11
scalar barabasi_100nodes_network.content_distribution 	client-58 	22
scalar barabasi_100nodes_network.content_distribution 	client-59 	68
scalar barabasi_100nodes_network.content_distribution 	client-60 	97
scalar barabasi_100nodes_network.content_distribution 	client-61 	37
scalar barabasi_100nodes_network.content_distribution 	client-62 	9
scalar barabasi_100nodes_network.content_distribution 	client-63 	28
scalar barabasi_100nodes_network.content_distribution 	client-64 	83
scalar barabasi_100nodes_network.content_distribution 	client-65 	50
scalar barabasi_100nodes_network.content_distribution 	client-66 	61
scalar barabasi_100nodes_network.content_distribution 	client-67 	26
scalar barabasi_100nodes_network.content_distribution 	client-68 	53
scalar barabasi_100nodes_network.content_distribution 	client-69 	1
scalar barabasi_100nodes_network.content_distribution 	client-70 	73
scalar barabasi_100nodes_network.content_distribution 	client-71 	92
scalar barabasi_100nodes_network.content_distribution 	client-72 	72
scalar barabasi_100nodes_network.content_distribution 	client-73 	40
scalar barabasi_100nodes_network.content_distribution 	client-74 	87
scalar barabasi_100nodes_network.content_distribution 	client-75 	66
scalar barabasi_100nodes_network.content_distribution 	client-76 	42
scalar barabasi_100nodes_network.content_distribution 	client-77 	89
scalar barabasi_100nodes_network.content_distribution 	client-78 	96
scalar barabasi_100nodes_network.content_distribution 	client-79 	47
scalar barabasi_100nodes_network.content_distribution 	client-80 	18
scalar barabasi_100nodes_network.content_distribution 	client-81 	33
scalar barabasi_100nodes_network.content_distribution 	client-82 	17
scalar barabasi_100nodes_network.content_distribution 	client-83 	51
scalar barabasi_100nodes_network.content_distribution 	client-84 	34
scalar barabasi_100nodes_network.content_distribution 	client-85 	4
scalar barabasi_100nodes_network.content_distribution 	client-86 	76
scalar barabasi_100nodes_network.content_distribution 	client-87 	13
scalar barabasi_100nodes_network.content_distribution 	client-88 	36
scalar barabasi_100nodes_network.content_distribution 	client-89 	58
scalar barabasi_100nodes_network.content_distribution 	client-90 	74
scalar barabasi_100nodes_network.content_distribution 	client-91 	23
scalar barabasi_100nodes_network.content_distribution 	client-92 	25
scalar barabasi_100nodes_network.content_distribution 	client-93 	77
scalar barabasi_100nodes_network.content_distribution 	client-94 	98
scalar barabasi_100nodes_network.content_distribution 	client-95 	27
scalar barabasi_100nodes_network.content_distribution 	client-96 	99
scalar barabasi_100nodes_network.content_distribution 	client-97 	19
scalar barabasi_100nodes_network.content_distribution 	client-98 	20
scalar barabasi_100nodes_network.content_distribution 	client-99 	63
scalar barabasi_100nodes_network.content_distribution 	repo-0_card 	249719
scalar barabasi_100nodes_network.content_distribution 	repo-0_price 	0
scalar barabasi_100nodes_network.content_distribution 	repo-1_card 	249423
scalar barabasi_100nodes_network.content_distribution 	repo-1_price 	0
scalar barabasi_100nodes_network.content_distribution 	repo-2_card 	249931
scalar barabasi_100nodes_network.content_distribution 	repo-2_price 	0
scalar barabasi_100nodes_network.content_distribution 	repo-3_card 	250927
scalar barabasi_100nodes_network.content_distribution 	repo-3_price 	0
scalar barabasi_100nodes_network.content_distribution 	repo-4_card 	0
scalar barabasi_100nodes_network.content_distribution 	repo-4_price 	0
scalar barabasi_100nodes_network.content_distribution 	repo-5_card 	0
scalar barabasi_100nodes_network.content_distribution 	repo-5_price 	0
scalar barabasi_100nodes_network.content_distribution 	repo-6_card 	0
scalar barabasi_100nodes_network.content_distribution 	repo-6_price 	0
scalar barabasi_100nodes_network.content_distribution 	repo-7_card 	0
scalar barabasi_100nodes_network.content_distribution 	repo-7_price 	0
scalar barabasi_100nodes_network.content_distribution 	repo-8_card 	0
scalar barabasi_100nodes_network.content_distribution 	repo-8_price 	0
scalar barabasi_100nodes_network.content_distribution 	repo-9_card 	0
scalar barabasi_100nodes_network.content_distribution 	repo-9_price 	0
scalar barabasi_100nodes_network.content_distribution 	repo-10_card 	0
scalar barabasi_100nodes_network.content_distribution 	repo-10_price 	0
scalar barabasi_100nodes_network.content_distribution 	repo-11_card 	0
scalar barabasi_100nodes_network.content_distribution 	repo-11_price 	0
scalar barabasi_100nodes_network.content_distribution 	repo-12_card 	0
scalar barabasi_100nodes_network.content_distribution 	repo-12_price 	0
scalar barabasi_100nodes_network.content_distribution 	repo-13_card 	0
scalar barabasi_100nodes_network.content_distribution 	repo-13_price 	0
scalar barabasi_100nodes_network.content_distribution 	repo-14_card 	0
scalar barabasi_100nodes_network.content_distribution 	repo-14_price 	0
scalar barabasi_100nodes_network.content_distribution 	repo-15_card 	0
scalar barabasi_100nodes_network.content_distribution 	repo-15_price 	0
scalar barabasi_100nodes_network.content_distribution 	repo-16_card 	0
scalar barabasi_100nodes_network.content_distribution 	repo-16_price 	0
scalar barabasi_100nodes_network.content_distribution 	repo-17_card 	0
scalar barabasi_100nodes_network.content_distribution 	repo-17_price 	0
scalar barabasi_100nodes_network.content_distribution 	repo-18_card 	0
scalar barabasi_100nodes_network.content_distribution 	repo-18_price 	0
scalar barabasi_100nodes_network.content_distribution 	repo-19_card 	0
scalar barabasi_100nodes_network.content_distribution 	repo-19_price 	0
scalar barabasi_100nodes_network.content_distribution 	repo-20_card 	0
scalar barabasi_100nodes_network.content_distribution 	repo-20_price 	0
scalar barabasi_100nodes_network.content_distribution 	repo-21_card 	0
scalar barabasi_100nodes_network.content_distribution 	repo-21_price 	0
scalar barabasi_100nodes_network.content_distribution 	repo-22_card 	0
scalar barabasi_100nodes_network.content_distribution 	repo-22_price 	0
scalar barabasi_100nodes_network.content_distribution 	repo-23_card 	0
scalar barabasi_100nodes_network.content_distribution 	repo-23_price 	0
scalar barabasi_100nodes_network.content_distribution 	repo-24_card 	0
scalar barabasi_100nodes_network.content_distribution 	repo-24_price 	0
scalar barabasi_100nodes_network.content_distribution 	repo-25_card 	0
scalar barabasi_100nodes_network.content_distribution 	repo-25_price 	0
scalar barabasi_100nodes_network.content_distribution 	repo-26_card 	0
scalar barabasi_100nodes_network.content_distribution 	repo-26_price 	0
scalar barabasi_100nodes_network.content_distribution 	repo-27_card 	0
scalar barabasi_100nodes_network.content_distribution 	repo-27_price 	0
scalar barabasi_100nodes_network.content_distribution 	repo-28_card 	0
scalar barabasi_100nodes_network.content_distribution 	repo-28_price 	0
scalar barabasi_100nodes_network.content_distribution 	repo-29_card 	0
scalar barabasi_100nodes_network.content_distribution 	repo-29_price 	0
scalar barabasi_100nodes_network.content_distribution 	repo-30_card 	0
scalar barabasi_100nodes_network.content_distribution 	repo-30_price 	0
scalar barabasi_100nodes_network.content_distribution 	repo-31_card 	0
scalar barabasi_100nodes_network.content_distribution 	repo-31_price 	0
scalar barabasi_100nodes_network.content_distribution 	repo-32_card 	0
scalar barabasi_100nodes_network.content_distribution 	repo-32_price 	0
scalar barabasi_100nodes_network.content_distribution 	repo-33_card 	0
scalar barabasi_100nodes_network.content_distribution 	repo-33_price 	0
scalar barabasi_100nodes_network.content_distribution 	repo-34_card 	0
scalar barabasi_100nodes_network.content_distribution 	repo-34_price 	0
scalar barabasi_100nodes_network.content_distribution 	repo-35_card 	0
scalar barabasi_100nodes_network.content_distribution 	repo-35_price 	0
scalar barabasi_100nodes_network.content_distribution 	repo-36_card 	0
scalar barabasi_100nodes_network.content_distribution 	repo-36_price 	0
scalar barabasi_100nodes_network.content_distribution 	repo-37_card 	0
scalar barabasi_100nodes_network.content_distribution 	repo-37_price 	0
scalar barabasi_100nodes_network.content_distribution 	repo-38_card 	0
scalar barabasi_100nodes_network.content_distribution 	repo-38_price 	0
scalar barabasi_100nodes_network.content_distribution 	repo-39_card 	0
scalar barabasi_100nodes_network.content_distribution 	repo-39_price 	0
scalar barabasi_100nodes_network.content_distribution 	repo-40_card 	0
scalar barabasi_100nodes_network.content_distribution 	repo-40_price 	0
scalar barabasi_100nodes_network.content_distribution 	repo-41_card 	0
scalar barabasi_100nodes_network.content_distribution 	repo-41_price 	0
scalar barabasi_100nodes_network.content_distribution 	repo-42_card 	0
scalar barabasi_100nodes_network.content_distribution 	repo-42_price 	0
scalar barabasi_100nodes_network.content_distribution 	repo-43_card 	0
scalar barabasi_100nodes_network.content_distribution 	repo-43_price 	0
scalar barabasi_100nodes_network.content_distribution 	repo-44_card 	0
scalar barabasi_100nodes_network.content_distribution 	repo-44_price 	0
scalar barabasi_100nodes_network.content_distribution 	repo-45_card 	0
scalar barabasi_100nodes_network.content_distribution 	repo-45_price 	0
scalar barabasi_100nodes_network.content_distribution 	repo-46_card 	0
scalar barabasi_100nodes_network.content_distribution 	repo-46_price 	0
scalar barabasi_100nodes_network.content_distribution 	repo-47_card 	0
scalar barabasi_100nodes_network.content_distribution 	repo-47_price 	0
scalar barabasi_100nodes_network.content_distribution 	repo-48_card 	0
scalar barabasi_100nodes_network.content_distribution 	repo-48_price 	0
scalar barabasi_100nodes_network.content_distribution 	repo-49_card 	0
scalar barabasi_100nodes_network.content_distribution 	repo-49_price 	0
scalar barabasi_100nodes_network.content_distribution 	repo-50_card 	0
scalar barabasi_100nodes_network.content_distribution 	repo-50_price 	0
scalar barabasi_100nodes_network.content_distribution 	repo-51_card 	0
scalar barabasi_100nodes_network.content_distribution 	repo-51_price 	0
scalar barabasi_100nodes_network.content_distribution 	repo-52_card 	0
scalar barabasi_100nodes_network.content_distribution 	repo-52_price 	0
scalar barabasi_100nodes_network.content_distribution 	repo-53_card 	0
scalar barabasi_100nodes_network.content_distribution 	repo-53_price 	0
scalar barabasi_100nodes_network.content_distribution 	repo-54_card 	0
scalar barabasi_100nodes_network.content_distribution 	repo-54_price 	0
scalar barabasi_100nodes_network.content_distribution 	repo-55_card 	0
scalar barabasi_100nodes_network.content_distribution 	repo-55_price 	0
scalar barabasi_100nodes_network.content_distribution 	repo-56_card 	0
scalar barabasi_100nodes_network.content_distribution 	repo-56_price 	0
scalar barabasi_100nodes_network.content_distribution 	repo-57_card 	0
scalar barabasi_100nodes_network.content_distribution 	repo-57_price 	0
scalar barabasi_100nodes_network.content_distribution 	repo-58_card 	0
scalar barabasi_100nodes_network.content_distribution 	repo-58_price 	0
scalar barabasi_100nodes_network.content_distribution 	repo-59_card 	0
scalar barabasi_100nodes_network.content_distribution 	repo-59_price 	0
scalar barabasi_100nodes_network.content_distribution 	repo-60_card 	0
scalar barabasi_100nodes_network.content_distribution 	repo-60_price 	0
scalar barabasi_100nodes_network.content_distribution 	repo-61_card 	0
scalar barabasi_100nodes_network.content_distribution 	repo-61_price 	0
scalar barabasi_100nodes_network.content_distribution 	repo-62_card 	0
scalar barabasi_100nodes_network.content_distribution 	repo-62_price 	0
scalar barabasi_100nodes_network.content_distribution 	repo-63_card 	0
scalar barabasi_100nodes_network.content_distribution 	repo-63_price 	0
scalar barabasi_100nodes_network.content_distribution 	repo-64_card 	0
scalar barabasi_100nodes_network.content_distribution 	repo-64_price 	0
scalar barabasi_100nodes_network.content_distribution 	repo-65_card 	0
scalar barabasi_100nodes_network.content_distribution 	repo-65_price 	0
scalar barabasi_100nodes_network.content_distribution 	repo-66_card 	0
scalar barabasi_100nodes_network.content_distribution 	repo-66_price 	0
scalar barabasi_100nodes_network.content_distribution 	repo-67_card 	0
scalar barabasi_100nodes_network.content_distribution 	repo-67_price 	0
scalar barabasi_100nodes_network.content_distribution 	repo-68_card 	0
scalar barabasi_100nodes_network.content_distribution 	repo-68_price 	0
scalar barabasi_100nodes_network.content_distribution 	repo-69_card 	0
scalar barabasi_100nodes_network.content_distribution 	repo-69_price 	0
scalar barabasi_100nodes_network.content_distribution 	repo-70_card 	0
scalar barabasi_100nodes_network.content_distribution 	repo-70_price 	0
scalar barabasi_100nodes_network.content_distribution 	repo-71_card 	0
scalar barabasi_100nodes_network.content_distribution 	repo-71_price 	0
scalar barabasi_100nodes_network.content_distribution 	repo-72_card 	0
scalar barabasi_100nodes_network.content_distribution 	repo-72_price 	0
scalar barabasi_100nodes_network.content_distribution 	repo-73_card 	0
scalar barabasi_100nodes_network.content_distribution 	repo-73_price 	0
scalar barabasi_100nodes_network.content_distribution 	repo-74_card 	0
scalar barabasi_100nodes_network.content_distribution 	repo-74_price 	0
scalar barabasi_100nodes_network.content_distribution 	repo-75_card 	0
scalar barabasi_100nodes_network.content_distribution 	repo-75_price 	0
scalar barabasi_100nodes_network.content_distribution 	repo-76_card 	0
scalar barabasi_100nodes_network.content_distribution 	repo-76_price 	0
scalar barabasi_100nodes_network.content_distribution 	repo-77_card 	0
scalar barabasi_100nodes_network.content_distribution 	repo-77_price 	0
scalar barabasi_100nodes_network.content_distribution 	repo-78_card 	0
scalar barabasi_100nodes_network.content_distribution 	repo-78_price 	0
scalar barabasi_100nodes_network.content_distribution 	repo-79_card 	0
scalar barabasi_100nodes_network.content_distribution 	repo-79_price 	0
scalar barabasi_100nodes_network.content_distribution 	repo-80_card 	0
scalar barabasi_100nodes_network.content_distribution 	repo-80_price 	0
scalar barabasi_100nodes_network.content_distribution 	repo-81_card 	0
scalar barabasi_100nodes_network.content_distribution 	repo-81_price 	0
scalar barabasi_100nodes_network.content_distribution 	repo-82_card 	0
scalar barabasi_100nodes_network.content_distribution 	repo-82_price 	0
scalar barabasi_100nodes_network.content_distribution 	repo-83_card 	0
scalar barabasi_100nodes_network.content_distribution 	repo-83_price 	0
scalar barabasi_100nodes_network.content_distribution 	repo-84_card 	0
scalar barabasi_100nodes_network.content_distribution 	repo-84_price 	0
scalar barabasi_100nodes_network.content_distribution 	repo-85_card 	0
scalar barabasi_100nodes_network.content_distribution 	repo-85_price 	0
scalar barabasi_100nodes_network.content_distribution 	repo-86_card 	0
scalar barabasi_100nodes_network.content_distribution 	repo-86_price 	0
scalar barabasi_100nodes_network.content_distribution 	repo-87_card 	0
scalar barabasi_100nodes_network.content_distribution 	repo-87_price 	0
scalar barabasi_100nodes_network.content_distribution 	repo-88_card 	0
scalar barabasi_100nodes_network.content_distribution 	repo-88_price 	0
scalar barabasi_100nodes_network.content_distribution 	repo-89_card 	0
scalar barabasi_100nodes_network.content_distribution 	repo-89_price 	0
scalar barabasi_100nodes_network.content_distribution 	repo-90_card 	0
scalar barabasi_100nodes_network.content_distribution 	repo-90_price 	0
scalar barabasi_100nodes_network.content_distribution 	repo-91_card 	0
scalar barabasi_100nodes_network.content_distribution 	repo-91_price 	0
scalar barabasi_100nodes_network.content_distribution 	repo-92_card 	0
scalar barabasi_100nodes_network.content_distribution 	repo-92_price 	0
scalar barabasi_100nodes_network.content_distribution 	repo-93_card 	0
scalar barabasi_100nodes_network.content_distribution 	repo-93_price 	0
scalar barabasi_100nodes_network.content_distribution 	repo-94_card 	0
scalar barabasi_100nodes_network.content_distribution 	repo-94_price 	0
scalar barabasi_100nodes_network.content_distribution 	repo-95_card 	0
scalar barabasi_100nodes_network.content_distribution 	repo-95_price 	0
scalar barabasi_100nodes_network.content_distribution 	repo-96_card 	0
scalar barabasi_100nodes_network.content_distribution 	repo-96_price 	0
scalar barabasi_100nodes_network.content_distribution 	repo-97_card 	0
scalar barabasi_100nodes_network.content_distribution 	repo-97_price 	0
scalar barabasi_100nodes_network.content_distribution 	repo-98_card 	0
scalar barabasi_100nodes_network.content_distribution 	repo-98_price 	0
scalar barabasi_100nodes_network.content_distribution 	repo-99_card 	0
scalar barabasi_100nodes_network.content_distribution 	repo-99_price 	0
scalar barabasi_100nodes_network.statistics 	stabilization_time 	36060
scalar barabasi_100nodes_network.statistics 	p_hit 	0.2896403273962
scalar barabasi_100nodes_network.statistics 	interests 	477698.88
scalar barabasi_100nodes_network.statistics 	data 	268498.83
scalar barabasi_100nodes_network.statistics 	hdistance 	1.4308695942746
scalar barabasi_100nodes_network.statistics 	avg_time 	0
scalar barabasi_100nodes_network.statistics 	downloads 	18000683
scalar barabasi_100nodes_network.statistics 	total_cost 	0
scalar barabasi_100nodes_network.statistics 	total_replicas 	1000000
scalar barabasi_100nodes_network.statistics 	"representations_downloaded 0.31367:0.0331833:0.0368703:0.0465718:0.569705:" 	0
scalar barabasi_100nodes_network.statistics 	"slots_per_representation 100:233:500:833:1167:" 	0
scalar barabasi_100nodes_network.statistics 	inner_hit 	0.606463876954
scalar barabasi_100nodes_network.statistics 	execution_time 	21575
scalar barabasi_100nodes_network.node[0].core_layer 	interests[0] 	3229817
scalar barabasi_100nodes_network.node[0].core_layer 	data[0] 	2657550
scalar barabasi_100nodes_network.node[0].core_layer 	slots_sent[face$o[1]->client[0]] 	124725861
scalar barabasi_100nodes_network.node[0].core_layer 	slots_sent[face$o[2]->node[1]] 	22376648
scalar barabasi_100nodes_network.node[0].core_layer 	slots_sent[face$o[3]->node[2]] 	375789421
scalar barabasi_100nodes_network.node[0].core_layer 	slots_sent[face$o[4]->node[5]] 	116757935
scalar barabasi_100nodes_network.node[0].core_layer 	slots_sent[face$o[5]->node[10]] 	43177022
scalar barabasi_100nodes_network.node[0].core_layer 	slots_sent[face$o[6]->node[11]] 	22473521
scalar barabasi_100nodes_network.node[0].core_layer 	slots_sent[face$o[7]->node[15]] 	61317803
scalar barabasi_100nodes_network.node[0].core_layer 	slots_sent[face$o[8]->node[21]] 	89426661
scalar barabasi_100nodes_network.node[0].core_layer 	slots_sent[face$o[9]->node[22]] 	31559516
scalar barabasi_100nodes_network.node[0].core_layer 	slots_sent[face$o[10]->node[28]] 	31760051
scalar barabasi_100nodes_network.node[0].core_layer 	slots_sent[face$o[11]->node[37]] 	31926657
scalar barabasi_100nodes_network.node[0].core_layer 	slots_sent[face$o[12]->node[44]] 	31688865
scalar barabasi_100nodes_network.node[0].core_layer 	slots_sent[face$o[13]->node[58]] 	61084467
scalar barabasi_100nodes_network.node[0].core_layer 	slots_sent[face$o[14]->node[73]] 	60442725
scalar barabasi_100nodes_network.node[0].core_layer 	slots_sent[face$o[15]->node[74]] 	31578258
scalar barabasi_100nodes_network.node[0].core_layer 	slots_sent[face$o[16]->node[93]] 	31484238
scalar barabasi_100nodes_network.node[0].content_store 	p_hit[0] 	0.1771824843327
scalar barabasi_100nodes_network.node[0].content_store 	hits[0] 	572267
scalar barabasi_100nodes_network.node[0].content_store 	misses[0] 	2657550
scalar barabasi_100nodes_network.node[0].content_store 	decision_yes[0] 	2657550
scalar barabasi_100nodes_network.node[0].content_store 	decision_no[0] 	0
scalar barabasi_100nodes_network.node[0].content_store 	decision_ratio[0] 	1
scalar barabasi_100nodes_network.node[0].content_store 	"representation_breakdown[0] 0x7fffbf867f28:0x7fffbf867f28:0x7fffbf867f28:0x7fffbf867f28:0x7fffbf867f28:" 	0
scalar barabasi_100nodes_network.node[0].proactive_component 	hdistance[0].proactive_component 	2.27814466765
scalar barabasi_100nodes_network.node[0].proactive_component 	downloads[0].proactive_component 	5715763
scalar barabasi_100nodes_network.node[0].proactive_component 	avg_time[0].proactive_component 	0
scalar barabasi_100nodes_network.node[1].core_layer 	interests[1] 	1582840
scalar barabasi_100nodes_network.node[1].core_layer 	repo_load[1] 	1445828
scalar barabasi_100nodes_network.node[1].core_layer 	data[1] 	57072
scalar barabasi_100nodes_network.node[1].core_layer 	slots_sent[face$o[1]->client[1]] 	104315901
scalar barabasi_100nodes_network.node[1].core_layer 	slots_sent[face$o[2]->node[0]] 	423149109
scalar barabasi_100nodes_network.node[1].content_store 	p_hit[1] 	0.050504157084734
scalar barabasi_100nodes_network.node[1].content_store 	hits[1] 	79940
scalar barabasi_100nodes_network.node[1].content_store 	misses[1] 	1502900
scalar barabasi_100nodes_network.node[1].content_store 	decision_yes[1] 	57072
scalar barabasi_100nodes_network.node[1].content_store 	decision_no[1] 	1445828
scalar barabasi_100nodes_network.node[1].content_store 	decision_ratio[1] 	0.037974582473884
scalar barabasi_100nodes_network.node[1].content_store 	"representation_breakdown[1] 0x7fffbf867f28:0x7fffbf867f28:0x7fffbf867f28:0x7fffbf867f28:0x7fffbf867f28:" 	0
scalar barabasi_100nodes_network.node[1].proactive_component 	hdistance[1].proactive_component 	3.6529599287946
scalar barabasi_100nodes_network.node[1].proactive_component 	downloads[1].proactive_component 	220208
scalar barabasi_100nodes_network.node[1].proactive_component 	avg_time[1].proactive_component 	0
scalar barabasi_100nodes_network.node[2].core_layer 	interests[2] 	6556912
scalar barabasi_100nodes_network.node[2].core_layer 	data[2] 	5500327
scalar barabasi_100nodes_network.node[2].core_layer 	slots_sent[face$o[1]->client[2]] 	121898986
scalar barabasi_100nodes_network.node[2].core_layer 	slots_sent[face$o[2]->node[0]] 	478439773
scalar barabasi_100nodes_network.node[2].core_layer 	slots_sent[face$o[3]->node[3]] 	60424262
scalar barabasi_100nodes_network.node[2].core_layer 	slots_sent[face$o[4]->node[4]] 	170874794
scalar barabasi_100nodes_network.node[2].core_layer 	slots_sent[face$o[5]->node[6]] 	22159706
scalar barabasi_100nodes_network.node[2].core_layer 	slots_sent[face$o[6]->node[7]] 	192827668
scalar barabasi_100nodes_network.node[2].core_layer 	slots_sent[face$o[7]->node[8]] 	210870786
scalar barabasi_100nodes_network.node[2].core_layer 	slots_sent[face$o[8]->node[13]] 	96853995
scalar barabasi_100nodes_network.node[2].core_layer 	slots_sent[face$o[9]->node[16]] 	190789055
scalar barabasi_100nodes_network.node[2].core_layer 	slots_sent[face$o[10]->node[18]] 	116887983
scalar barabasi_100nodes_network.node[2].core_layer 	slots_sent[face$o[11]->node[25]] 	60077988
scalar barabasi_100nodes_network.node[2].core_layer 	slots_sent[face$o[12]->node[26]] 	116331501
scalar barabasi_100nodes_network.node[2].core_layer 	slots_sent[face$o[13]->node[29]] 	31274295
scalar barabasi_100nodes_network.node[2].core_layer 	slots_sent[face$o[14]->node[32]] 	88336376
scalar barabasi_100nodes_network.node[2].core_layer 	slots_sent[face$o[15]->node[33]] 	30994503
scalar barabasi_100nodes_network.node[2].core_layer 	slots_sent[face$o[16]->node[34]] 	31228803
scalar barabasi_100nodes_network.node[2].core_layer 	slots_sent[face$o[17]->node[36]] 	60061576
scalar barabasi_100nodes_network.node[2].core_layer 	slots_sent[face$o[18]->node[41]] 	119472208
scalar barabasi_100nodes_network.node[2].core_layer 	slots_sent[face$o[19]->node[45]] 	31454878
scalar barabasi_100nodes_network.node[2].core_layer 	slots_sent[face$o[20]->node[59]] 	31300132
scalar barabasi_100nodes_network.node[2].core_layer 	slots_sent[face$o[21]->node[62]] 	87891473
scalar barabasi_100nodes_network.node[2].core_layer 	slots_sent[face$o[22]->node[79]] 	31362633
scalar barabasi_100nodes_network.node[2].content_store 	p_hit[2] 	0.16114064059423
scalar barabasi_100nodes_network.node[2].content_store 	hits[2] 	1056585
scalar barabasi_100nodes_network.node[2].content_store 	misses[2] 	5500327
scalar barabasi_100nodes_network.node[2].content_store 	decision_yes[2] 	5500327
scalar barabasi_100nodes_network.node[2].content_store 	decision_no[2] 	0
scalar barabasi_100nodes_network.node[2].content_store 	decision_ratio[2] 	1
scalar barabasi_100nodes_network.node[2].content_store 	"representation_breakdown[2] 0x7fffbf867f28:0x7fffbf867f28:0x7fffbf867f28:0x7fffbf867f28:0x7fffbf867f28:" 	0
scalar barabasi_100nodes_network.node[2].proactive_component 	hdistance[2].proactive_component 	2.4748743837008
scalar barabasi_100nodes_network.node[2].proactive_component 	downloads[2].proactive_component 	11245953
scalar barabasi_100nodes_network.node[2].proactive_component 	avg_time[2].proactive_component 	0
scalar barabasi_100nodes_network.node[3].core_layer 	interests[3] 	278967
scalar barabasi_100nodes_network.node[3].core_layer 	data[3] 	155537
scalar barabasi_100nodes_network.node[3].core_layer 	slots_sent[face$o[1]->client[3]] 	140018754
scalar barabasi_100nodes_network.node[3].core_layer 	slots_sent[face$o[2]->node[2]] 	0
scalar barabasi_100nodes_network.node[3].core_layer 	slots_sent[face$o[3]->node[52]] 	32560722
scalar barabasi_100nodes_network.node[3].content_store 	p_hit[3] 	0.44245376693301
scalar barabasi_100nodes_network.node[3].content_store 	hits[3] 	123430
scalar barabasi_100nodes_network.node[3].content_store 	misses[3] 	155537
scalar barabasi_100nodes_network.node[3].content_store 	decision_yes[3] 	155537
scalar barabasi_100nodes_network.node[3].content_store 	decision_no[3] 	0
scalar barabasi_100nodes_network.node[3].content_store 	decision_ratio[3] 	1
scalar barabasi_100nodes_network.node[3].content_store 	"representation_breakdown[3] 0x7fffbf867f28:0x7fffbf867f28:0x7fffbf867f28:0x7fffbf867f28:0x7fffbf867f28:" 	0
scalar barabasi_100nodes_network.node[3].proactive_component 	hdistance[3].proactive_component 	2.9187371159379
scalar barabasi_100nodes_network.node[3].proactive_component 	downloads[3].proactive_component 	416697
scalar barabasi_100nodes_network.node[3].proactive_component 	avg_time[3].proactive_component 	0
scalar barabasi_100nodes_network.node[4].core_layer 	interests[4] 	614563
scalar barabasi_100nodes_network.node[4].core_layer 	data[4] 	442356
scalar barabasi_100nodes_network.node[4].core_layer 	slots_sent[face$o[1]->client[4]] 	137351694
scalar barabasi_100nodes_network.node[4].core_layer 	slots_sent[face$o[2]->node[2]] 	0
scalar barabasi_100nodes_network.node[4].core_layer 	slots_sent[face$o[3]->node[27]] 	63315741
scalar barabasi_100nodes_network.node[4].core_layer 	slots_sent[face$o[4]->node[30]] 	63532311
scalar barabasi_100nodes_network.node[4].core_layer 	slots_sent[face$o[5]->node[85]] 	33825466
scalar barabasi_100nodes_network.node[4].content_store 	p_hit[4] 	0.28021049103184
scalar barabasi_100nodes_network.node[4].content_store 	hits[4] 	172207
scalar barabasi_100nodes_network.node[4].content_store 	misses[4] 	442356
scalar barabasi_100nodes_network.node[4].content_store 	decision_yes[4] 	442356
scalar barabasi_100nodes_network.node[4].content_store 	decision_no[4] 	0
scalar barabasi_100nodes_network.node[4].content_store 	decision_ratio[4] 	1
scalar barabasi_100nodes_network.node[4].content_store 	"representation_breakdown[4] 0x7fffbf867f28:0x7fffbf867f28:0x7fffbf867f28:0x7fffbf867f28:0x7fffbf867f28:" 	0
scalar barabasi_100nodes_network.node[4].proactive_component 	hdistance[4].proactive_component 	2.9455415714952
scalar barabasi_100nodes_network.node[4].proactive_component 	downloads[4].proactive_component 	999074
scalar barabasi_100nodes_network.node[4].proactive_component 	avg_time[4].proactive_component 	0
scalar barabasi_100nodes_network.node[5].core_layer 	interests[5] 	445217
scalar barabasi_100nodes_network.node[5].core_layer 	data[5] 	298535
scalar barabasi_100nodes_network.node[5].core_layer 	slots_sent[face$o[1]->client[5]] 	139083842
scalar barabasi_100nodes_network.node[5].core_layer 	slots_sent[face$o[2]->node[0]] 	0
scalar barabasi_100nodes_network.node[5].core_layer 	slots_sent[face$o[3]->node[9]] 	33547636
scalar barabasi_100nodes_network.node[5].core_layer 	slots_sent[face$o[4]->node[35]] 	62880417
scalar barabasi_100nodes_network.node[5].content_store 	p_hit[5] 	0.32946181300355
scalar barabasi_100nodes_network.node[5].content_store 	hits[5] 	146682
scalar barabasi_100nodes_network.node[5].content_store 	misses[5] 	298535
scalar barabasi_100nodes_network.node[5].content_store 	decision_yes[5] 	298535
scalar barabasi_100nodes_network.node[5].content_store 	decision_no[5] 	0
scalar barabasi_100nodes_network.node[5].content_store 	decision_ratio[5] 	1
scalar barabasi_100nodes_network.node[5].content_store 	"representation_breakdown[5] 0x7fffbf867f28:0x7fffbf867f28:0x7fffbf867f28:0x7fffbf867f28:0x7fffbf867f28:" 	0
scalar barabasi_100nodes_network.node[5].proactive_component 	hdistance[5].proactive_component 	3.173949066002
scalar barabasi_100nodes_network.node[5].proactive_component 	downloads[5].proactive_component 	704873
scalar barabasi_100nodes_network.node[5].proactive_component 	avg_time[5].proactive_component 	0
scalar barabasi_100nodes_network.node[6].core_layer 	interests[6] 	190724
scalar barabasi_100nodes_network.node[6].core_layer 	repo_load[6] 	41246
scalar barabasi_100nodes_network.node[6].core_layer 	data[6] 	57313
scalar barabasi_100nodes_network.node[6].core_layer 	slots_sent[face$o[1]->client[6]] 	117435468
scalar barabasi_100nodes_network.node[6].core_layer 	slots_sent[face$o[2]->node[2]] 	0
scalar barabasi_100nodes_network.node[6].content_store 	p_hit[6] 	0.48323755793712
scalar barabasi_100nodes_network.node[6].content_store 	hits[6] 	92165
scalar barabasi_100nodes_network.node[6].content_store 	misses[6] 	98559
scalar barabasi_100nodes_network.node[6].content_store 	decision_yes[6] 	57313
scalar barabasi_100nodes_network.node[6].content_store 	decision_no[6] 	41246
scalar barabasi_100nodes_network.node[6].content_store 	decision_ratio[6] 	0.58150955265374
scalar barabasi_100nodes_network.node[6].content_store 	"representation_breakdown[6] 0x7fffbf867f28:0x7fffbf867f28:0x7fffbf867f28:0x7fffbf867f28:0x7fffbf867f28:" 	0
scalar barabasi_100nodes_network.node[6].proactive_component 	hdistance[6].proactive_component 	3.074419313221
scalar barabasi_100nodes_network.node[6].proactive_component 	downloads[6].proactive_component 	210053
scalar barabasi_100nodes_network.node[6].proactive_component 	avg_time[6].proactive_component 	0
scalar barabasi_100nodes_network.node[7].core_layer 	interests[7] 	2608917
scalar barabasi_100nodes_network.node[7].core_layer 	repo_load[7] 	332943
scalar barabasi_100nodes_network.node[7].core_layer 	data[7] 	1874428
scalar barabasi_100nodes_network.node[7].core_layer 	slots_sent[face$o[1]->client[7]] 	94883374
scalar barabasi_100nodes_network.node[7].core_layer 	slots_sent[face$o[2]->node[2]] 	530093520
scalar barabasi_100nodes_network.node[7].core_layer 	slots_sent[face$o[3]->node[23]] 	142043995
scalar barabasi_100nodes_network.node[7].core_layer 	slots_sent[face$o[4]->node[31]] 	102019549
scalar barabasi_100nodes_network.node[7].core_layer 	slots_sent[face$o[5]->node[49]] 	29163981
scalar barabasi_100nodes_network.node[7].core_layer 	slots_sent[face$o[6]->node[90]] 	29490056
scalar barabasi_100nodes_network.node[7].content_store 	p_hit[7] 	0.15391290715649
scalar barabasi_100nodes_network.node[7].content_store 	hits[7] 	401546
scalar barabasi_100nodes_network.node[7].content_store 	misses[7] 	2207371
scalar barabasi_100nodes_network.node[7].content_store 	decision_yes[7] 	1874428
scalar barabasi_100nodes_network.node[7].content_store 	decision_no[7] 	332943
scalar barabasi_100nodes_network.node[7].content_store 	decision_ratio[7] 	0.84916762972785
scalar barabasi_100nodes_network.node[7].content_store 	"representation_breakdown[7] 0x7fffbf867f28:0x7fffbf867f28:0x7fffbf867f28:0x7fffbf867f28:0x7fffbf867f28:" 	0
scalar barabasi_100nodes_network.node[7].proactive_component 	hdistance[7].proactive_component 	2.7600577652242
scalar barabasi_100nodes_network.node[7].proactive_component 	downloads[7].proactive_component 	3846605
scalar barabasi_100nodes_network.node[7].proactive_component 	avg_time[7].proactive_component 	0
scalar barabasi_100nodes_network.node[8].core_layer 	interests[8] 	747178
scalar barabasi_100nodes_network.node[8].core_layer 	data[8] 	548048
scalar barabasi_100nodes_network.node[8].core_layer 	slots_sent[face$o[1]->client[8]] 	137616422
scalar barabasi_100nodes_network.node[8].core_layer 	slots_sent[face$o[2]->node[2]] 	0
scalar barabasi_100nodes_network.node[8].core_layer 	slots_sent[face$o[3]->node[12]] 	34033490
scalar barabasi_100nodes_network.node[8].core_layer 	slots_sent[face$o[4]->node[14]] 	22663674
scalar barabasi_100nodes_network.node[8].core_layer 	slots_sent[face$o[5]->node[17]] 	23608740
scalar barabasi_100nodes_network.node[8].core_layer 	slots_sent[face$o[6]->node[39]] 	63318690
scalar barabasi_100nodes_network.node[8].core_layer 	slots_sent[face$o[7]->node[61]] 	33632112
scalar barabasi_100nodes_network.node[8].core_layer 	slots_sent[face$o[8]->node[66]] 	33457095
scalar barabasi_100nodes_network.node[8].content_store 	p_hit[8] 	0.26650945290145
scalar barabasi_100nodes_network.node[8].content_store 	hits[8] 	199130
scalar barabasi_100nodes_network.node[8].content_store 	misses[8] 	548048
scalar barabasi_100nodes_network.node[8].content_store 	decision_yes[8] 	548048
scalar barabasi_100nodes_network.node[8].content_store 	decision_no[8] 	0
scalar barabasi_100nodes_network.node[8].content_store 	decision_ratio[8] 	1
scalar barabasi_100nodes_network.node[8].content_store 	"representation_breakdown[8] 0x7fffbf867f28:0x7fffbf867f28:0x7fffbf867f28:0x7fffbf867f28:0x7fffbf867f28:" 	0
scalar barabasi_100nodes_network.node[8].proactive_component 	hdistance[8].proactive_component 	2.9416779237871
scalar barabasi_100nodes_network.node[8].proactive_component 	downloads[8].proactive_component 	1291775
scalar barabasi_100nodes_network.node[8].proactive_component 	avg_time[8].proactive_component 	0
scalar barabasi_100nodes_network.node[9].core_layer 	interests[9] 	193172
scalar barabasi_100nodes_network.node[9].core_layer 	data[9] 	79309
scalar barabasi_100nodes_network.node[9].core_layer 	slots_sent[face$o[1]->client[9]] 	146336267
scalar barabasi_100nodes_network.node[9].core_layer 	slots_sent[face$o[2]->node[5]] 	0
scalar barabasi_100nodes_network.node[9].content_store 	p_hit[9] 	0.58943842792951
scalar barabasi_100nodes_network.node[9].content_store 	hits[9] 	113863
scalar barabasi_100nodes_network.node[9].content_store 	misses[9] 	79309
scalar barabasi_100nodes_network.node[9].content_store 	decision_yes[9] 	79309
scalar barabasi_100nodes_network.node[9].content_store 	decision_no[9] 	0
scalar barabasi_100nodes_network.node[9].content_store 	decision_ratio[9] 	1
scalar barabasi_100nodes_network.node[9].content_store 	"representation_breakdown[9] 0x7fffbf867f28:0x7fffbf867f28:0x7fffbf867f28:0x7fffbf867f28:0x7fffbf867f28:" 	0
scalar barabasi_100nodes_network.node[9].proactive_component 	hdistance[9].proactive_component 	3.3706521324847
scalar barabasi_100nodes_network.node[9].proactive_component 	downloads[9].proactive_component 	262370
scalar barabasi_100nodes_network.node[9].proactive_component 	avg_time[9].proactive_component 	0
scalar barabasi_100nodes_network.node[10].core_layer 	interests[10] 	276742
scalar barabasi_100nodes_network.node[10].core_layer 	repo_load[10] 	56954
scalar barabasi_100nodes_network.node[10].core_layer 	data[10] 	110838
scalar barabasi_100nodes_network.node[10].core_layer 	slots_sent[face$o[1]->client[10]] 	124089377
scalar barabasi_100nodes_network.node[10].core_layer 	slots_sent[face$o[2]->node[0]] 	0
scalar barabasi_100nodes_network.node[10].core_layer 	slots_sent[face$o[3]->node[71]] 	29631770
scalar barabasi_100nodes_network.node[10].content_store 	p_hit[10] 	0.39368798375382
scalar barabasi_100nodes_network.node[10].content_store 	hits[10] 	108950
scalar barabasi_100nodes_network.node[10].content_store 	misses[10] 	167792
scalar barabasi_100nodes_network.node[10].content_store 	decision_yes[10] 	110838
scalar barabasi_100nodes_network.node[10].content_store 	decision_no[10] 	56954
scalar barabasi_100nodes_network.node[10].content_store 	decision_ratio[10] 	0.66056784590445
scalar barabasi_100nodes_network.node[10].content_store 	"representation_breakdown[10] 0x7fffbf867f28:0x7fffbf867f28:0x7fffbf867f28:0x7fffbf867f28:0x7fffbf867f28:" 	0
scalar barabasi_100nodes_network.node[10].proactive_component 	hdistance[10].proactive_component 	3.2687828325669
scalar barabasi_100nodes_network.node[10].proactive_component 	downloads[10].proactive_component 	335985
scalar barabasi_100nodes_network.node[10].proactive_component 	avg_time[10].proactive_component 	0
scalar barabasi_100nodes_network.node[11].core_layer 	interests[11] 	190456
scalar barabasi_100nodes_network.node[11].core_layer 	repo_load[11] 	53537
scalar barabasi_100nodes_network.node[11].core_layer 	data[11] 	56888
scalar barabasi_100nodes_network.node[11].core_layer 	slots_sent[face$o[1]->client[11]] 	104527425
scalar barabasi_100nodes_network.node[11].core_layer 	slots_sent[face$o[2]->node[0]] 	0
scalar barabasi_100nodes_network.node[11].content_store 	p_hit[11] 	0.42020729197295
scalar barabasi_100nodes_network.node[11].content_store 	hits[11] 	80031
scalar barabasi_100nodes_network.node[11].content_store 	misses[11] 	110425
scalar barabasi_100nodes_network.node[11].content_store 	decision_yes[11] 	56888
scalar barabasi_100nodes_network.node[11].content_store 	decision_no[11] 	53537
scalar barabasi_100nodes_network.node[11].content_store 	decision_ratio[11] 	0.51517319447589
scalar barabasi_100nodes_network.node[11].content_store 	"representation_breakdown[11] 0x7fffbf867f28:0x7fffbf867f28:0x7fffbf867f28:0x7fffbf867f28:0x7fffbf867f28:" 	0
scalar barabasi_100nodes_network.node[11].proactive_component 	hdistance[11].proactive_component 	3.6528154020385
scalar barabasi_100nodes_network.node[11].proactive_component 	downloads[11].proactive_component 	220750
scalar barabasi_100nodes_network.node[11].proactive_component 	avg_time[11].proactive_component 	0
scalar barabasi_100nodes_network.node[12].core_layer 	interests[12] 	192851
scalar barabasi_100nodes_network.node[12].core_layer 	data[12] 	79988
scalar barabasi_100nodes_network.node[12].core_layer 	slots_sent[face$o[1]->client[12]] 	145507448
scalar barabasi_100nodes_network.node[12].core_layer 	slots_sent[face$o[2]->node[8]] 	0
scalar barabasi_100nodes_network.node[12].content_store 	p_hit[12] 	0.58523419634848
scalar barabasi_100nodes_network.node[12].content_store 	hits[12] 	112863
scalar barabasi_100nodes_network.node[12].content_store 	misses[12] 	79988
scalar barabasi_100nodes_network.node[12].content_store 	decision_yes[12] 	79988
scalar barabasi_100nodes_network.node[12].content_store 	decision_no[12] 	0
scalar barabasi_100nodes_network.node[12].content_store 	decision_ratio[12] 	1
scalar barabasi_100nodes_network.node[12].content_store 	"representation_breakdown[12] 0x7fffbf867f28:0x7fffbf867f28:0x7fffbf867f28:0x7fffbf867f28:0x7fffbf867f28:" 	0
scalar barabasi_100nodes_network.node[12].proactive_component 	hdistance[12].proactive_component 	3.2289246097437
scalar barabasi_100nodes_network.node[12].proactive_component 	downloads[12].proactive_component 	258548
scalar barabasi_100nodes_network.node[12].proactive_component 	avg_time[12].proactive_component 	0
scalar barabasi_100nodes_network.node[13].core_layer 	interests[13] 	497773
scalar barabasi_100nodes_network.node[13].core_layer 	repo_load[13] 	125985
scalar barabasi_100nodes_network.node[13].core_layer 	data[13] 	249627
scalar barabasi_100nodes_network.node[13].core_layer 	slots_sent[face$o[1]->client[13]] 	114840076
scalar barabasi_100nodes_network.node[13].core_layer 	slots_sent[face$o[2]->node[2]] 	0
scalar barabasi_100nodes_network.node[13].core_layer 	slots_sent[face$o[3]->node[67]] 	29978908
scalar barabasi_100nodes_network.node[13].core_layer 	slots_sent[face$o[4]->node[78]] 	76603786
scalar barabasi_100nodes_network.node[13].content_store 	p_hit[13] 	0.2454150787608
scalar barabasi_100nodes_network.node[13].content_store 	hits[13] 	122161
scalar barabasi_100nodes_network.node[13].content_store 	misses[13] 	375612
scalar barabasi_100nodes_network.node[13].content_store 	decision_yes[13] 	249627
scalar barabasi_100nodes_network.node[13].content_store 	decision_no[13] 	125985
scalar barabasi_100nodes_network.node[13].content_store 	decision_ratio[13] 	0.66458739337401
scalar barabasi_100nodes_network.node[13].content_store 	"representation_breakdown[13] 0x7fffbf867f28:0x7fffbf867f28:0x7fffbf867f28:0x7fffbf867f28:0x7fffbf867f28:" 	0
scalar barabasi_100nodes_network.node[13].proactive_component 	hdistance[13].proactive_component 	3.0976498706469
scalar barabasi_100nodes_network.node[13].proactive_component 	downloads[13].proactive_component 	578649
scalar barabasi_100nodes_network.node[13].proactive_component 	avg_time[13].proactive_component 	0
scalar barabasi_100nodes_network.node[14].core_layer 	interests[14] 	189713
scalar barabasi_100nodes_network.node[14].core_layer 	repo_load[14] 	51397
scalar barabasi_100nodes_network.node[14].core_layer 	data[14] 	56303
scalar barabasi_100nodes_network.node[14].core_layer 	slots_sent[face$o[1]->client[14]] 	107696138
scalar barabasi_100nodes_network.node[14].core_layer 	slots_sent[face$o[2]->node[8]] 	0
scalar barabasi_100nodes_network.node[14].content_store 	p_hit[14] 	0.43230036950552
scalar barabasi_100nodes_network.node[14].content_store 	hits[14] 	82013
scalar barabasi_100nodes_network.node[14].content_store 	misses[14] 	107700
scalar barabasi_100nodes_network.node[14].content_store 	decision_yes[14] 	56303
scalar barabasi_100nodes_network.node[14].content_store 	decision_no[14] 	51397
scalar barabasi_100nodes_network.node[14].content_store 	decision_ratio[14] 	0.52277623026927
scalar barabasi_100nodes_network.node[14].content_store 	"representation_breakdown[14] 0x7fffbf867f28:0x7fffbf867f28:0x7fffbf867f28:0x7fffbf867f28:0x7fffbf867f28:" 	0
scalar barabasi_100nodes_network.node[14].proactive_component 	hdistance[14].proactive_component 	3.3587168731757
scalar barabasi_100nodes_network.node[14].proactive_component 	downloads[14].proactive_component 	206932
scalar barabasi_100nodes_network.node[14].proactive_component 	avg_time[14].proactive_component 	0
scalar barabasi_100nodes_network.node[15].core_layer 	interests[15] 	363296
scalar barabasi_100nodes_network.node[15].core_layer 	repo_load[15] 	97431
scalar barabasi_100nodes_network.node[15].core_layer 	data[15] 	162272
scalar barabasi_100nodes_network.node[15].core_layer 	slots_sent[face$o[1]->client[15]] 	104138936
scalar barabasi_100nodes_network.node[15].core_layer 	slots_sent[face$o[2]->node[0]] 	0
scalar barabasi_100nodes_network.node[15].core_layer 	slots_sent[face$o[3]->node[40]] 	29046007
scalar barabasi_100nodes_network.node[15].core_layer 	slots_sent[face$o[4]->node[56]] 	29415669
scalar barabasi_100nodes_network.node[15].content_store 	p_hit[15] 	0.28514764819871
scalar barabasi_100nodes_network.node[15].content_store 	hits[15] 	103593
scalar barabasi_100nodes_network.node[15].content_store 	misses[15] 	259703
scalar barabasi_100nodes_network.node[15].content_store 	decision_yes[15] 	162272
scalar barabasi_100nodes_network.node[15].content_store 	decision_no[15] 	97431
scalar barabasi_100nodes_network.node[15].content_store 	decision_ratio[15] 	0.62483683284367
scalar barabasi_100nodes_network.node[15].content_store 	"representation_breakdown[15] 0x7fffbf867f28:0x7fffbf867f28:0x7fffbf867f28:0x7fffbf867f28:0x7fffbf867f28:" 	0
scalar barabasi_100nodes_network.node[15].proactive_component 	hdistance[15].proactive_component 	3.1790080403986
scalar barabasi_100nodes_network.node[15].proactive_component 	downloads[15].proactive_component 	483185
scalar barabasi_100nodes_network.node[15].proactive_component 	avg_time[15].proactive_component 	0
scalar barabasi_100nodes_network.node[16].core_layer 	interests[16] 	650425
scalar barabasi_100nodes_network.node[16].core_layer 	data[16] 	495201
scalar barabasi_100nodes_network.node[16].core_layer 	slots_sent[face$o[1]->client[16]] 	137699048
scalar barabasi_100nodes_network.node[16].core_layer 	slots_sent[face$o[2]->node[2]] 	0
scalar barabasi_100nodes_network.node[16].core_layer 	slots_sent[face$o[3]->node[19]] 	139869287
scalar barabasi_100nodes_network.node[16].core_layer 	slots_sent[face$o[4]->node[20]] 	33688342
scalar barabasi_100nodes_network.node[16].content_store 	p_hit[16] 	0.2386501133874
scalar barabasi_100nodes_network.node[16].content_store 	hits[16] 	155224
scalar barabasi_100nodes_network.node[16].content_store 	misses[16] 	495201
scalar barabasi_100nodes_network.node[16].content_store 	decision_yes[16] 	495201
scalar barabasi_100nodes_network.node[16].content_store 	decision_no[16] 	0
scalar barabasi_100nodes_network.node[16].content_store 	decision_ratio[16] 	1
scalar barabasi_100nodes_network.node[16].content_store 	"representation_breakdown[16] 0x7fffbf867f28:0x7fffbf867f28:0x7fffbf867f28:0x7fffbf867f28:0x7fffbf867f28:" 	0
scalar barabasi_100nodes_network.node[16].proactive_component 	hdistance[16].proactive_component 	2.8664579710144
scalar barabasi_100nodes_network.node[16].proactive_component 	downloads[16].proactive_component 	819375
scalar barabasi_100nodes_network.node[16].proactive_component 	avg_time[16].proactive_component 	0
scalar barabasi_100nodes_network.node[17].core_layer 	interests[17] 	189739
scalar barabasi_100nodes_network.node[17].core_layer 	repo_load[17] 	40871
scalar barabasi_100nodes_network.node[17].core_layer 	data[17] 	56764
scalar barabasi_100nodes_network.node[17].core_layer 	slots_sent[face$o[1]->client[17]] 	119677124
scalar barabasi_100nodes_network.node[17].core_layer 	slots_sent[face$o[2]->node[8]] 	0
scalar barabasi_100nodes_network.node[17].content_store 	p_hit[17] 	0.48542471500324
scalar barabasi_100nodes_network.node[17].content_store 	hits[17] 	92104
scalar barabasi_100nodes_network.node[17].content_store 	misses[17] 	97635
scalar barabasi_100nodes_network.node[17].content_store 	decision_yes[17] 	56764
scalar barabasi_100nodes_network.node[17].content_store 	decision_no[17] 	40871
scalar barabasi_100nodes_network.node[17].content_store 	decision_ratio[17] 	0.58138987043581
scalar barabasi_100nodes_network.node[17].content_store 	"representation_breakdown[17] 0x7fffbf867f28:0x7fffbf867f28:0x7fffbf867f28:0x7fffbf867f28:0x7fffbf867f28:" 	0
scalar barabasi_100nodes_network.node[17].proactive_component 	hdistance[17].proactive_component 	3.4629951329459
scalar barabasi_100nodes_network.node[17].proactive_component 	downloads[17].proactive_component 	203203
scalar barabasi_100nodes_network.node[17].proactive_component 	avg_time[17].proactive_component 	0
scalar barabasi_100nodes_network.node[18].core_layer 	interests[18] 	454378
scalar barabasi_100nodes_network.node[18].core_layer 	data[18] 	301083
scalar barabasi_100nodes_network.node[18].core_layer 	slots_sent[face$o[1]->client[18]] 	138498128
scalar barabasi_100nodes_network.node[18].core_layer 	slots_sent[face$o[2]->node[2]] 	0
scalar barabasi_100nodes_network.node[18].core_layer 	slots_sent[face$o[3]->node[53]] 	33580691
scalar barabasi_100nodes_network.node[18].core_layer 	slots_sent[face$o[4]->node[68]] 	33239322
scalar barabasi_100nodes_network.node[18].core_layer 	slots_sent[face$o[5]->node[72]] 	33258143
scalar barabasi_100nodes_network.node[18].content_store 	p_hit[18] 	0.33737328831942
scalar barabasi_100nodes_network.node[18].content_store 	hits[18] 	153295
scalar barabasi_100nodes_network.node[18].content_store 	misses[18] 	301083
scalar barabasi_100nodes_network.node[18].content_store 	decision_yes[18] 	301083
scalar barabasi_100nodes_network.node[18].content_store 	decision_no[18] 	0
scalar barabasi_100nodes_network.node[18].content_store 	decision_ratio[18] 	1
scalar barabasi_100nodes_network.node[18].content_store 	"representation_breakdown[18] 0x7fffbf867f28:0x7fffbf867f28:0x7fffbf867f28:0x7fffbf867f28:0x7fffbf867f28:" 	0
scalar barabasi_100nodes_network.node[18].proactive_component 	hdistance[18].proactive_component 	2.9564530520129
scalar barabasi_100nodes_network.node[18].proactive_component 	downloads[18].proactive_component 	762120
scalar barabasi_100nodes_network.node[18].proactive_component 	avg_time[18].proactive_component 	0
scalar barabasi_100nodes_network.node[19].core_layer 	interests[19] 	514328
scalar barabasi_100nodes_network.node[19].core_layer 	data[19] 	351401
scalar barabasi_100nodes_network.node[19].core_layer 	slots_sent[face$o[1]->client[19]] 	141367052
scalar barabasi_100nodes_network.node[19].core_layer 	slots_sent[face$o[2]->node[16]] 	0
scalar barabasi_100nodes_network.node[19].core_layer 	slots_sent[face$o[3]->node[63]] 	34091426
scalar barabasi_100nodes_network.node[19].core_layer 	slots_sent[face$o[4]->node[70]] 	33970182
scalar barabasi_100nodes_network.node[19].core_layer 	slots_sent[face$o[5]->node[80]] 	33839609
scalar barabasi_100nodes_network.node[19].core_layer 	slots_sent[face$o[6]->node[89]] 	23768347
scalar barabasi_100nodes_network.node[19].content_store 	p_hit[19] 	0.31677645393601
scalar barabasi_100nodes_network.node[19].content_store 	hits[19] 	162927
scalar barabasi_100nodes_network.node[19].content_store 	misses[19] 	351401
scalar barabasi_100nodes_network.node[19].content_store 	decision_yes[19] 	351401
scalar barabasi_100nodes_network.node[19].content_store 	decision_no[19] 	0
scalar barabasi_100nodes_network.node[19].content_store 	decision_ratio[19] 	1
scalar barabasi_100nodes_network.node[19].content_store 	"representation_breakdown[19] 0x7fffbf867f28:0x7fffbf867f28:0x7fffbf867f28:0x7fffbf867f28:0x7fffbf867f28:" 	0
scalar barabasi_100nodes_network.node[19].proactive_component 	hdistance[19].proactive_component 	3.353502859057
scalar barabasi_100nodes_network.node[19].proactive_component 	downloads[19].proactive_component 	850805
scalar barabasi_100nodes_network.node[19].proactive_component 	avg_time[19].proactive_component 	0
scalar barabasi_100nodes_network.node[20].core_layer 	interests[20] 	192848
scalar barabasi_100nodes_network.node[20].core_layer 	data[20] 	79853
scalar barabasi_100nodes_network.node[20].core_layer 	slots_sent[face$o[1]->client[20]] 	145483674
scalar barabasi_100nodes_network.node[20].core_layer 	slots_sent[face$o[2]->node[16]] 	0
scalar barabasi_100nodes_network.node[20].content_store 	p_hit[20] 	0.58592777731685
scalar barabasi_100nodes_network.node[20].content_store 	hits[20] 	112995
scalar barabasi_100nodes_network.node[20].content_store 	misses[20] 	79853
scalar barabasi_100nodes_network.node[20].content_store 	decision_yes[20] 	79853
scalar barabasi_100nodes_network.node[20].content_store 	decision_no[20] 	0
scalar barabasi_100nodes_network.node[20].content_store 	decision_ratio[20] 	1
scalar barabasi_100nodes_network.node[20].content_store 	"representation_breakdown[20] 0x7fffbf867f28:0x7fffbf867f28:0x7fffbf867f28:0x7fffbf867f28:0x7fffbf867f28:" 	0
scalar barabasi_100nodes_network.node[20].proactive_component 	hdistance[20].proactive_component 	3.2174542265953
scalar barabasi_100nodes_network.node[20].proactive_component 	downloads[20].proactive_component 	257737
scalar barabasi_100nodes_network.node[20].proactive_component 	avg_time[20].proactive_component 	0
scalar barabasi_100nodes_network.node[21].core_layer 	interests[21] 	367668
scalar barabasi_100nodes_network.node[21].core_layer 	data[21] 	227866
scalar barabasi_100nodes_network.node[21].core_layer 	slots_sent[face$o[1]->client[21]] 	140677470
scalar barabasi_100nodes_network.node[21].core_layer 	slots_sent[face$o[2]->node[0]] 	0
scalar barabasi_100nodes_network.node[21].core_layer 	slots_sent[face$o[3]->node[24]] 	33436991
scalar barabasi_100nodes_network.node[21].core_layer 	slots_sent[face$o[4]->node[57]] 	33142692
scalar barabasi_100nodes_network.node[21].content_store 	p_hit[21] 	0.38023978154204
scalar barabasi_100nodes_network.node[21].content_store 	hits[21] 	139802
scalar barabasi_100nodes_network.node[21].content_store 	misses[21] 	227866
scalar barabasi_100nodes_network.node[21].content_store 	decision_yes[21] 	227866
scalar barabasi_100nodes_network.node[21].content_store 	decision_no[21] 	0
scalar barabasi_100nodes_network.node[21].content_store 	decision_ratio[21] 	1
scalar barabasi_100nodes_network.node[21].content_store 	"representation_breakdown[21] 0x7fffbf867f28:0x7fffbf867f28:0x7fffbf867f28:0x7fffbf867f28:0x7fffbf867f28:" 	0
scalar barabasi_100nodes_network.node[21].proactive_component 	hdistance[21].proactive_component 	3.1962478607959
scalar barabasi_100nodes_network.node[21].proactive_component 	downloads[21].proactive_component 	606534
scalar barabasi_100nodes_network.node[21].proactive_component 	avg_time[21].proactive_component 	0
scalar barabasi_100nodes_network.node[22].core_layer 	interests[22] 	193004
scalar barabasi_100nodes_network.node[22].core_layer 	data[22] 	79744
scalar barabasi_100nodes_network.node[22].core_layer 	slots_sent[face$o[1]->client[22]] 	142294979
scalar barabasi_100nodes_network.node[22].core_layer 	slots_sent[face$o[2]->node[0]] 	0
scalar barabasi_100nodes_network.node[22].content_store 	p_hit[22] 	0.58682721601625
scalar barabasi_100nodes_network.node[22].content_store 	hits[22] 	113260
scalar barabasi_100nodes_network.node[22].content_store 	misses[22] 	79744
scalar barabasi_100nodes_network.node[22].content_store 	decision_yes[22] 	79744
scalar barabasi_100nodes_network.node[22].content_store 	decision_no[22] 	0
scalar barabasi_100nodes_network.node[22].content_store 	decision_ratio[22] 	1
scalar barabasi_100nodes_network.node[22].content_store 	"representation_breakdown[22] 0x7fffbf867f28:0x7fffbf867f28:0x7fffbf867f28:0x7fffbf867f28:0x7fffbf867f28:" 	0
scalar barabasi_100nodes_network.node[22].proactive_component 	hdistance[22].proactive_component 	3.1769178361217
scalar barabasi_100nodes_network.node[22].proactive_component 	downloads[22].proactive_component 	284748
scalar barabasi_100nodes_network.node[22].proactive_component 	avg_time[22].proactive_component 	0
scalar barabasi_100nodes_network.node[23].core_layer 	interests[23] 	2057464
scalar barabasi_100nodes_network.node[23].core_layer 	data[23] 	1824342
scalar barabasi_100nodes_network.node[23].core_layer 	slots_sent[face$o[1]->client[23]] 	117810987
scalar barabasi_100nodes_network.node[23].core_layer 	slots_sent[face$o[2]->node[7]] 	454652091
scalar barabasi_100nodes_network.node[23].core_layer 	slots_sent[face$o[3]->node[46]] 	38691838
scalar barabasi_100nodes_network.node[23].core_layer 	slots_sent[face$o[4]->node[47]] 	20571163
scalar barabasi_100nodes_network.node[23].core_layer 	slots_sent[face$o[5]->node[51]] 	30053824
scalar barabasi_100nodes_network.node[23].core_layer 	slots_sent[face$o[6]->node[83]] 	30126985
scalar barabasi_100nodes_network.node[23].core_layer 	slots_sent[face$o[7]->node[86]] 	29676763
scalar barabasi_100nodes_network.node[23].content_store 	p_hit[23] 	0.11330550619598
scalar barabasi_100nodes_network.node[23].content_store 	hits[23] 	233122
scalar barabasi_100nodes_network.node[23].content_store 	misses[23] 	1824342
scalar barabasi_100nodes_network.node[23].content_store 	decision_yes[23] 	1824342
scalar barabasi_100nodes_network.node[23].content_store 	decision_no[23] 	0
scalar barabasi_100nodes_network.node[23].content_store 	decision_ratio[23] 	1
scalar barabasi_100nodes_network.node[23].content_store 	"representation_breakdown[23] 0x7fffbf867f28:0x7fffbf867f28:0x7fffbf867f28:0x7fffbf867f28:0x7fffbf867f28:" 	0
scalar barabasi_100nodes_network.node[23].proactive_component 	hdistance[23].proactive_component 	2.2221264991979
scalar barabasi_100nodes_network.node[23].proactive_component 	downloads[23].proactive_component 	1910605
scalar barabasi_100nodes_network.node[23].proactive_component 	avg_time[23].proactive_component 	0
scalar barabasi_100nodes_network.node[24].core_layer 	interests[24] 	193448
scalar barabasi_100nodes_network.node[24].core_layer 	data[24] 	79343
scalar barabasi_100nodes_network.node[24].core_layer 	slots_sent[face$o[1]->client[24]] 	146199823
scalar barabasi_100nodes_network.node[24].core_layer 	slots_sent[face$o[2]->node[21]] 	0
scalar barabasi_100nodes_network.node[24].content_store 	p_hit[24] 	0.58984843472148
scalar barabasi_100nodes_network.node[24].content_store 	hits[24] 	114105
scalar barabasi_100nodes_network.node[24].content_store 	misses[24] 	79343
scalar barabasi_100nodes_network.node[24].content_store 	decision_yes[24] 	79343
scalar barabasi_100nodes_network.node[24].content_store 	decision_no[24] 	0
scalar barabasi_100nodes_network.node[24].content_store 	decision_ratio[24] 	1
scalar barabasi_100nodes_network.node[24].content_store 	"representation_breakdown[24] 0x7fffbf867f28:0x7fffbf867f28:0x7fffbf867f28:0x7fffbf867f28:0x7fffbf867f28:" 	0
scalar barabasi_100nodes_network.node[24].proactive_component 	hdistance[24].proactive_component 	3.333072368371
scalar barabasi_100nodes_network.node[24].proactive_component 	downloads[24].proactive_component 	263126
scalar barabasi_100nodes_network.node[24].proactive_component 	avg_time[24].proactive_component 	0
scalar barabasi_100nodes_network.node[25].core_layer 	interests[25] 	279465
scalar barabasi_100nodes_network.node[25].core_layer 	data[25] 	155636
scalar barabasi_100nodes_network.node[25].core_layer 	slots_sent[face$o[1]->client[25]] 	140887955
scalar barabasi_100nodes_network.node[25].core_layer 	slots_sent[face$o[2]->node[2]] 	0
scalar barabasi_100nodes_network.node[25].core_layer 	slots_sent[face$o[3]->node[38]] 	32490022
scalar barabasi_100nodes_network.node[25].content_store 	p_hit[25] 	0.44309305279731
scalar barabasi_100nodes_network.node[25].content_store 	hits[25] 	123829
scalar barabasi_100nodes_network.node[25].content_store 	misses[25] 	155636
scalar barabasi_100nodes_network.node[25].content_store 	decision_yes[25] 	155636
scalar barabasi_100nodes_network.node[25].content_store 	decision_no[25] 	0
scalar barabasi_100nodes_network.node[25].content_store 	decision_ratio[25] 	1
scalar barabasi_100nodes_network.node[25].content_store 	"representation_breakdown[25] 0x7fffbf867f28:0x7fffbf867f28:0x7fffbf867f28:0x7fffbf867f28:0x7fffbf867f28:" 	0
scalar barabasi_100nodes_network.node[25].proactive_component 	hdistance[25].proactive_component 	2.9228693127002
scalar barabasi_100nodes_network.node[25].proactive_component 	downloads[25].proactive_component 	414608
scalar barabasi_100nodes_network.node[25].proactive_component 	avg_time[25].proactive_component 	0
scalar barabasi_100nodes_network.node[26].core_layer 	interests[26] 	445962
scalar barabasi_100nodes_network.node[26].core_layer 	data[26] 	300164
scalar barabasi_100nodes_network.node[26].core_layer 	slots_sent[face$o[1]->client[26]] 	138618245
scalar barabasi_100nodes_network.node[26].core_layer 	slots_sent[face$o[2]->node[2]] 	0
scalar barabasi_100nodes_network.node[26].core_layer 	slots_sent[face$o[3]->node[77]] 	62645913
scalar barabasi_100nodes_network.node[26].core_layer 	slots_sent[face$o[4]->node[91]] 	33655507
scalar barabasi_100nodes_network.node[26].content_store 	p_hit[26] 	0.32692920024576
scalar barabasi_100nodes_network.node[26].content_store 	hits[26] 	145798
scalar barabasi_100nodes_network.node[26].content_store 	misses[26] 	300164
scalar barabasi_100nodes_network.node[26].content_store 	decision_yes[26] 	300164
scalar barabasi_100nodes_network.node[26].content_store 	decision_no[26] 	0
scalar barabasi_100nodes_network.node[26].content_store 	decision_ratio[26] 	1
scalar barabasi_100nodes_network.node[26].content_store 	"representation_breakdown[26] 0x7fffbf867f28:0x7fffbf867f28:0x7fffbf867f28:0x7fffbf867f28:0x7fffbf867f28:" 	0
scalar barabasi_100nodes_network.node[26].proactive_component 	hdistance[26].proactive_component 	2.9335414775609
scalar barabasi_100nodes_network.node[26].proactive_component 	downloads[26].proactive_component 	684141
scalar barabasi_100nodes_network.node[26].proactive_component 	avg_time[26].proactive_component 	0
scalar barabasi_100nodes_network.node[27].core_layer 	interests[27] 	277846
scalar barabasi_100nodes_network.node[27].core_layer 	data[27] 	153704
scalar barabasi_100nodes_network.node[27].core_layer 	slots_sent[face$o[1]->client[27]] 	144731032
scalar barabasi_100nodes_network.node[27].core_layer 	slots_sent[face$o[2]->node[4]] 	0
scalar barabasi_100nodes_network.node[27].core_layer 	slots_sent[face$o[3]->node[99]] 	33778472
scalar barabasi_100nodes_network.node[27].content_store 	p_hit[27] 	0.44680146556006
scalar barabasi_100nodes_network.node[27].content_store 	hits[27] 	124142
scalar barabasi_100nodes_network.node[27].content_store 	misses[27] 	153704
scalar barabasi_100nodes_network.node[27].content_store 	decision_yes[27] 	153704
scalar barabasi_100nodes_network.node[27].content_store 	decision_no[27] 	0
scalar barabasi_100nodes_network.node[27].content_store 	decision_ratio[27] 	1
scalar barabasi_100nodes_network.node[27].content_store 	"representation_breakdown[27] 0x7fffbf867f28:0x7fffbf867f28:0x7fffbf867f28:0x7fffbf867f28:0x7fffbf867f28:" 	0
scalar barabasi_100nodes_network.node[27].proactive_component 	hdistance[27].proactive_component 	3.1624481142317
scalar barabasi_100nodes_network.node[27].proactive_component 	downloads[27].proactive_component 	391485
scalar barabasi_100nodes_network.node[27].proactive_component 	avg_time[27].proactive_component 	0
scalar barabasi_100nodes_network.node[28].core_layer 	interests[28] 	194109
scalar barabasi_100nodes_network.node[28].core_layer 	data[28] 	80459
scalar barabasi_100nodes_network.node[28].core_layer 	slots_sent[face$o[1]->client[28]] 	142664453
scalar barabasi_100nodes_network.node[28].core_layer 	slots_sent[face$o[2]->node[0]] 	0
scalar barabasi_100nodes_network.node[28].content_store 	p_hit[28] 	0.58549577814527
scalar barabasi_100nodes_network.node[28].content_store 	hits[28] 	113650
scalar barabasi_100nodes_network.node[28].content_store 	misses[28] 	80459
scalar barabasi_100nodes_network.node[28].content_store 	decision_yes[28] 	80459
scalar barabasi_100nodes_network.node[28].content_store 	decision_no[28] 	0
scalar barabasi_100nodes_network.node[28].content_store 	decision_ratio[28] 	1
scalar barabasi_100nodes_network.node[28].content_store 	"representation_breakdown[28] 0x7fffbf867f28:0x7fffbf867f28:0x7fffbf867f28:0x7fffbf867f28:0x7fffbf867f28:" 	0
scalar barabasi_100nodes_network.node[28].proactive_component 	hdistance[28].proactive_component 	3.1768777918085
scalar barabasi_100nodes_network.node[28].proactive_component 	downloads[28].proactive_component 	285881
scalar barabasi_100nodes_network.node[28].proactive_component 	avg_time[28].proactive_component 	0
scalar barabasi_100nodes_network.node[29].core_layer 	interests[29] 	193518
scalar barabasi_100nodes_network.node[29].core_layer 	data[29] 	80453
scalar barabasi_100nodes_network.node[29].core_layer 	slots_sent[face$o[1]->client[29]] 	142223745
scalar barabasi_100nodes_network.node[29].core_layer 	slots_sent[face$o[2]->node[2]] 	0
scalar barabasi_100nodes_network.node[29].content_store 	p_hit[29] 	0.58426089562728
scalar barabasi_100nodes_network.node[29].content_store 	hits[29] 	113065
scalar barabasi_100nodes_network.node[29].content_store 	misses[29] 	80453
scalar barabasi_100nodes_network.node[29].content_store 	decision_yes[29] 	80453
scalar barabasi_100nodes_network.node[29].content_store 	decision_no[29] 	0
scalar barabasi_100nodes_network.node[29].content_store 	decision_ratio[29] 	1
scalar barabasi_100nodes_network.node[29].content_store 	"representation_breakdown[29] 0x7fffbf867f28:0x7fffbf867f28:0x7fffbf867f28:0x7fffbf867f28:0x7fffbf867f28:" 	0
scalar barabasi_100nodes_network.node[29].proactive_component 	hdistance[29].proactive_component 	2.9230503356315
scalar barabasi_100nodes_network.node[29].proactive_component 	downloads[29].proactive_component 	274855
scalar barabasi_100nodes_network.node[29].proactive_component 	avg_time[29].proactive_component 	0
scalar barabasi_100nodes_network.node[30].core_layer 	interests[30] 	278258
scalar barabasi_100nodes_network.node[30].core_layer 	data[30] 	153752
scalar barabasi_100nodes_network.node[30].core_layer 	slots_sent[face$o[1]->client[30]] 	145129334
scalar barabasi_100nodes_network.node[30].core_layer 	slots_sent[face$o[2]->node[4]] 	0
scalar barabasi_100nodes_network.node[30].core_layer 	slots_sent[face$o[3]->node[88]] 	33901529
scalar barabasi_100nodes_network.node[30].content_store 	p_hit[30] 	0.44744805180803
scalar barabasi_100nodes_network.node[30].content_store 	hits[30] 	124506
scalar barabasi_100nodes_network.node[30].content_store 	misses[30] 	153752
scalar barabasi_100nodes_network.node[30].content_store 	decision_yes[30] 	153752
scalar barabasi_100nodes_network.node[30].content_store 	decision_no[30] 	0
scalar barabasi_100nodes_network.node[30].content_store 	decision_ratio[30] 	1
scalar barabasi_100nodes_network.node[30].content_store 	"representation_breakdown[30] 0x7fffbf867f28:0x7fffbf867f28:0x7fffbf867f28:0x7fffbf867f28:0x7fffbf867f28:" 	0
scalar barabasi_100nodes_network.node[30].proactive_component 	hdistance[30].proactive_component 	3.1679189272188
scalar barabasi_100nodes_network.node[30].proactive_component 	downloads[30].proactive_component 	390760
scalar barabasi_100nodes_network.node[30].proactive_component 	avg_time[30].proactive_component 	0
scalar barabasi_100nodes_network.node[31].core_layer 	interests[31] 	416246
scalar barabasi_100nodes_network.node[31].core_layer 	data[31] 	283984
scalar barabasi_100nodes_network.node[31].core_layer 	slots_sent[face$o[1]->client[31]] 	135496897
scalar barabasi_100nodes_network.node[31].core_layer 	slots_sent[face$o[2]->node[7]] 	0
scalar barabasi_100nodes_network.node[31].core_layer 	slots_sent[face$o[3]->node[65]] 	76893163
scalar barabasi_100nodes_network.node[31].content_store 	p_hit[31] 	0.31774959999616
scalar barabasi_100nodes_network.node[31].content_store 	hits[31] 	132262
scalar barabasi_100nodes_network.node[31].content_store 	misses[31] 	283984
scalar barabasi_100nodes_network.node[31].content_store 	decision_yes[31] 	283984
scalar barabasi_100nodes_network.node[31].content_store 	decision_no[31] 	0
scalar barabasi_100nodes_network.node[31].content_store 	decision_ratio[31] 	1
scalar barabasi_100nodes_network.node[31].content_store 	"representation_breakdown[31] 0x7fffbf867f28:0x7fffbf867f28:0x7fffbf867f28:0x7fffbf867f28:0x7fffbf867f28:" 	0
scalar barabasi_100nodes_network.node[31].proactive_component 	hdistance[31].proactive_component 	2.6657662151239
scalar barabasi_100nodes_network.node[31].proactive_component 	downloads[31].proactive_component 	607473
scalar barabasi_100nodes_network.node[31].proactive_component 	avg_time[31].proactive_component 	0
scalar barabasi_100nodes_network.node[32].core_layer 	interests[32] 	366690
scalar barabasi_100nodes_network.node[32].core_layer 	data[32] 	228057
scalar barabasi_100nodes_network.node[32].core_layer 	slots_sent[face$o[1]->client[32]] 	139888779
scalar barabasi_100nodes_network.node[32].core_layer 	slots_sent[face$o[2]->node[2]] 	0
scalar barabasi_100nodes_network.node[32].core_layer 	slots_sent[face$o[3]->node[43]] 	33048752
scalar barabasi_100nodes_network.node[32].core_layer 	slots_sent[face$o[4]->node[64]] 	32844257
[...]
scalar barabasi_100nodes_network.client[8] 	avg_time[8].real 	0
scalar barabasi_100nodes_network.client[9] 	hdistance[9].real 	1.6107071053929
scalar barabasi_100nodes_network.client[9] 	downloads[9].real 	180553
scalar barabasi_100nodes_network.client[9] 	avg_time[9].real 	0
scalar barabasi_100nodes_network.client[10] 	hdistance[10].real 	1.1835169354928
scalar barabasi_100nodes_network.client[10] 	downloads[10].real 	179918
scalar barabasi_100nodes_network.client[10] 	avg_time[10].real 	0
scalar barabasi_100nodes_network.client[11] 	hdistance[11].real 	1.4063368692597
scalar barabasi_100nodes_network.client[11] 	downloads[11].real 	179868
scalar barabasi_100nodes_network.client[11] 	avg_time[11].real 	0
scalar barabasi_100nodes_network.client[12] 	hdistance[12].real 	1.5024339340923
scalar barabasi_100nodes_network.client[12] 	downloads[12].real 	180161
scalar barabasi_100nodes_network.client[12] 	avg_time[12].real 	0
scalar barabasi_100nodes_network.client[13] 	hdistance[13].real 	1.2103962042436
scalar barabasi_100nodes_network.client[13] 	downloads[13].real 	180412
scalar barabasi_100nodes_network.client[13] 	avg_time[13].real 	0
scalar barabasi_100nodes_network.client[14] 	hdistance[14].real 	1.3186895757151
scalar barabasi_100nodes_network.client[14] 	downloads[14].real 	179667
scalar barabasi_100nodes_network.client[14] 	avg_time[14].real 	0
scalar barabasi_100nodes_network.client[15] 	hdistance[15].real 	1.2403646036215
scalar barabasi_100nodes_network.client[15] 	downloads[15].real 	179702
scalar barabasi_100nodes_network.client[15] 	avg_time[15].real 	0
scalar barabasi_100nodes_network.client[16] 	hdistance[16].real 	1.3723434919016
scalar barabasi_100nodes_network.client[16] 	downloads[16].real 	180406
scalar barabasi_100nodes_network.client[16] 	avg_time[16].real 	0
scalar barabasi_100nodes_network.client[17] 	hdistance[17].real 	1.3117622868829
scalar barabasi_100nodes_network.client[17] 	downloads[17].real 	179948
scalar barabasi_100nodes_network.client[17] 	avg_time[17].real 	0
scalar barabasi_100nodes_network.client[18] 	hdistance[18].real 	1.3379071463973
scalar barabasi_100nodes_network.client[18] 	downloads[18].real 	179573
scalar barabasi_100nodes_network.client[18] 	avg_time[18].real 	0
scalar barabasi_100nodes_network.client[19] 	hdistance[19].real 	1.6471552121579
scalar barabasi_100nodes_network.client[19] 	downloads[19].real 	180031
scalar barabasi_100nodes_network.client[19] 	avg_time[19].real 	0
scalar barabasi_100nodes_network.client[20] 	hdistance[20].real 	1.5019717903634
scalar barabasi_100nodes_network.client[20] 	downloads[20].real 	180293
scalar barabasi_100nodes_network.client[20] 	avg_time[20].real 	0
scalar barabasi_100nodes_network.client[21] 	hdistance[21].real 	1.4441634640447
scalar barabasi_100nodes_network.client[21] 	downloads[21].real 	180321
scalar barabasi_100nodes_network.client[21] 	avg_time[21].real 	0
scalar barabasi_100nodes_network.client[22] 	hdistance[22].real 	1.3906209079309
scalar barabasi_100nodes_network.client[22] 	downloads[22].real 	179463
scalar barabasi_100nodes_network.client[22] 	avg_time[22].real 	0
scalar barabasi_100nodes_network.client[23] 	hdistance[23].real 	1.3414811565393
scalar barabasi_100nodes_network.client[23] 	downloads[23].real 	180089
scalar barabasi_100nodes_network.client[23] 	avg_time[23].real 	0
scalar barabasi_100nodes_network.client[24] 	hdistance[24].real 	1.6118454935622
scalar barabasi_100nodes_network.client[24] 	downloads[24].real 	180575
scalar barabasi_100nodes_network.client[24] 	avg_time[24].real 	0
scalar barabasi_100nodes_network.client[25] 	hdistance[25].real 	1.3093762311957
scalar barabasi_100nodes_network.client[25] 	downloads[25].real 	180211
scalar barabasi_100nodes_network.client[25] 	avg_time[25].real 	0
scalar barabasi_100nodes_network.client[26] 	hdistance[26].real 	1.3436413306553
scalar barabasi_100nodes_network.client[26] 	downloads[26].real 	179731
scalar barabasi_100nodes_network.client[26] 	avg_time[26].real 	0
scalar barabasi_100nodes_network.client[27] 	hdistance[27].real 	1.5452294980284
scalar barabasi_100nodes_network.client[27] 	downloads[27].real 	180568
scalar barabasi_100nodes_network.client[27] 	avg_time[27].real 	0
scalar barabasi_100nodes_network.client[28] 	hdistance[28].real 	1.3946151799375
scalar barabasi_100nodes_network.client[28] 	downloads[28].real 	180396
scalar barabasi_100nodes_network.client[28] 	avg_time[28].real 	0
scalar barabasi_100nodes_network.client[29] 	hdistance[29].real 	1.2798551335522
scalar barabasi_100nodes_network.client[29] 	downloads[29].real 	180304
scalar barabasi_100nodes_network.client[29] 	avg_time[29].real 	0
scalar barabasi_100nodes_network.client[30] 	hdistance[30].real 	1.5381547872546
scalar barabasi_100nodes_network.client[30] 	downloads[30].real 	180803
scalar barabasi_100nodes_network.client[30] 	avg_time[30].real 	0
scalar barabasi_100nodes_network.client[31] 	hdistance[31].real 	1.2569358063083
scalar barabasi_100nodes_network.client[31] 	downloads[31].real 	180080
scalar barabasi_100nodes_network.client[31] 	avg_time[31].real 	0
scalar barabasi_100nodes_network.client[32] 	hdistance[32].real 	1.3209327904277
scalar barabasi_100nodes_network.client[32] 	downloads[32].real 	180019
scalar barabasi_100nodes_network.client[32] 	avg_time[32].real 	0
scalar barabasi_100nodes_network.client[33] 	hdistance[33].real 	1.2845251418422
scalar barabasi_100nodes_network.client[33] 	downloads[33].real 	179601
scalar barabasi_100nodes_network.client[33] 	avg_time[33].real 	0
scalar barabasi_100nodes_network.client[34] 	hdistance[34].real 	1.2789555282651
scalar barabasi_100nodes_network.client[34] 	downloads[34].real 	179957
scalar barabasi_100nodes_network.client[34] 	avg_time[34].real 	0
scalar barabasi_100nodes_network.client[35] 	hdistance[35].real 	1.6600584769415
scalar barabasi_100nodes_network.client[35] 	downloads[35].real 	180584
scalar barabasi_100nodes_network.client[35] 	avg_time[35].real 	0
scalar barabasi_100nodes_network.client[36] 	hdistance[36].real 	1.3092304866032
scalar barabasi_100nodes_network.client[36] 	downloads[36].real 	179633
scalar barabasi_100nodes_network.client[36] 	avg_time[36].real 	0
scalar barabasi_100nodes_network.client[37] 	hdistance[37].real 	1.3850800278358
scalar barabasi_100nodes_network.client[37] 	downloads[37].real 	179625
scalar barabasi_100nodes_network.client[37] 	avg_time[37].real 	0
scalar barabasi_100nodes_network.client[38] 	hdistance[38].real 	1.5395017951578
scalar barabasi_100nodes_network.client[38] 	downloads[38].real 	180207
scalar barabasi_100nodes_network.client[38] 	avg_time[38].real 	0
scalar barabasi_100nodes_network.client[39] 	hdistance[39].real 	1.5319565060368
scalar barabasi_100nodes_network.client[39] 	downloads[39].real 	179979
scalar barabasi_100nodes_network.client[39] 	avg_time[39].real 	0
scalar barabasi_100nodes_network.client[40] 	hdistance[40].real 	1.2821033764903
scalar barabasi_100nodes_network.client[40] 	downloads[40].real 	179654
scalar barabasi_100nodes_network.client[40] 	avg_time[40].real 	0
scalar barabasi_100nodes_network.client[41] 	hdistance[41].real 	1.2499581262911
scalar barabasi_100nodes_network.client[41] 	downloads[41].real 	179110
scalar barabasi_100nodes_network.client[41] 	avg_time[41].real 	0
scalar barabasi_100nodes_network.client[42] 	hdistance[42].real 	1.2860500476193
scalar barabasi_100nodes_network.client[42] 	downloads[42].real 	179549
scalar barabasi_100nodes_network.client[42] 	avg_time[42].real 	0
scalar barabasi_100nodes_network.client[43] 	hdistance[43].real 	1.51110021398
scalar barabasi_100nodes_network.client[43] 	downloads[43].real 	179456
scalar barabasi_100nodes_network.client[43] 	avg_time[43].real 	0
scalar barabasi_100nodes_network.client[44] 	hdistance[44].real 	1.3881515847701
scalar barabasi_100nodes_network.client[44] 	downloads[44].real 	179332
scalar barabasi_100nodes_network.client[44] 	avg_time[44].real 	0
scalar barabasi_100nodes_network.client[45] 	hdistance[45].real 	1.2764645141233
scalar barabasi_100nodes_network.client[45] 	downloads[45].real 	180128
scalar barabasi_100nodes_network.client[45] 	avg_time[45].real 	0
scalar barabasi_100nodes_network.client[46] 	hdistance[46].real 	1.3780823904845
scalar barabasi_100nodes_network.client[46] 	downloads[46].real 	179244
scalar barabasi_100nodes_network.client[46] 	avg_time[46].real 	0
scalar barabasi_100nodes_network.client[47] 	hdistance[47].real 	1.0552484957782
scalar barabasi_100nodes_network.client[47] 	downloads[47].real 	179661
scalar barabasi_100nodes_network.client[47] 	avg_time[47].real 	0
scalar barabasi_100nodes_network.client[48] 	hdistance[48].real 	1.2828842097104
scalar barabasi_100nodes_network.client[48] 	downloads[48].real 	180611
scalar barabasi_100nodes_network.client[48] 	avg_time[48].real 	0
scalar barabasi_100nodes_network.client[49] 	hdistance[49].real 	1.1880097017167
scalar barabasi_100nodes_network.client[49] 	downloads[49].real 	179762
scalar barabasi_100nodes_network.client[49] 	avg_time[49].real 	0
scalar barabasi_100nodes_network.client[50] 	hdistance[50].real 	1.8566185222297
scalar barabasi_100nodes_network.client[50] 	downloads[50].real 	180637
scalar barabasi_100nodes_network.client[50] 	avg_time[50].real 	0
scalar barabasi_100nodes_network.client[51] 	hdistance[51].real 	1.3445578439161
scalar barabasi_100nodes_network.client[51] 	downloads[51].real 	179993
scalar barabasi_100nodes_network.client[51] 	avg_time[51].real 	0
scalar barabasi_100nodes_network.client[52] 	hdistance[52].real 	1.5295061329531
scalar barabasi_100nodes_network.client[52] 	downloads[52].real 	179522
scalar barabasi_100nodes_network.client[52] 	avg_time[52].real 	0
scalar barabasi_100nodes_network.client[53] 	hdistance[53].real 	1.5085765807626
scalar barabasi_100nodes_network.client[53] 	downloads[53].real 	180783
scalar barabasi_100nodes_network.client[53] 	avg_time[53].real 	0
scalar barabasi_100nodes_network.client[54] 	hdistance[54].real 	1.3164736114734
scalar barabasi_100nodes_network.client[54] 	downloads[54].real 	180173
scalar barabasi_100nodes_network.client[54] 	avg_time[54].real 	0
scalar barabasi_100nodes_network.client[55] 	hdistance[55].real 	1.213902349771
scalar barabasi_100nodes_network.client[55] 	downloads[55].real 	180358
scalar barabasi_100nodes_network.client[55] 	avg_time[55].real 	0
scalar barabasi_100nodes_network.client[56] 	hdistance[56].real 	1.2921617435557
scalar barabasi_100nodes_network.client[56] 	downloads[56].real 	180780
scalar barabasi_100nodes_network.client[56] 	avg_time[56].real 	0
scalar barabasi_100nodes_network.client[57] 	hdistance[57].real 	1.6151619343389
scalar barabasi_100nodes_network.client[57] 	downloads[57].real 	180320
scalar barabasi_100nodes_network.client[57] 	avg_time[57].real 	0
scalar barabasi_100nodes_network.client[58] 	hdistance[58].real 	1.4204311745043
scalar barabasi_100nodes_network.client[58] 	downloads[58].real 	180391
scalar barabasi_100nodes_network.client[58] 	avg_time[58].real 	0
scalar barabasi_100nodes_network.client[59] 	hdistance[59].real 	1.2803493886254
scalar barabasi_100nodes_network.client[59] 	downloads[59].real 	180086
scalar barabasi_100nodes_network.client[59] 	avg_time[59].real 	0
scalar barabasi_100nodes_network.client[60] 	hdistance[60].real 	1.7469006941777
scalar barabasi_100nodes_network.client[60] 	downloads[60].real 	179637
scalar barabasi_100nodes_network.client[60] 	avg_time[60].real 	0
scalar barabasi_100nodes_network.client[61] 	hdistance[61].real 	1.503831183274
scalar barabasi_100nodes_network.client[61] 	downloads[61].real 	179840
scalar barabasi_100nodes_network.client[61] 	avg_time[61].real 	0
scalar barabasi_100nodes_network.client[62] 	hdistance[62].real 	1.329247003358
scalar barabasi_100nodes_network.client[62] 	downloads[62].real 	179868
scalar barabasi_100nodes_network.client[62] 	avg_time[62].real 	0
scalar barabasi_100nodes_network.client[63] 	hdistance[63].real 	1.7504066801024
scalar barabasi_100nodes_network.client[63] 	downloads[63].real 	180117
scalar barabasi_100nodes_network.client[63] 	avg_time[63].real 	0
scalar barabasi_100nodes_network.client[64] 	hdistance[64].real 	1.51388172383
scalar barabasi_100nodes_network.client[64] 	downloads[64].real 	180273
scalar barabasi_100nodes_network.client[64] 	avg_time[64].real 	0
scalar barabasi_100nodes_network.client[65] 	hdistance[65].real 	1.5349999445326
scalar barabasi_100nodes_network.client[65] 	downloads[65].real 	180286
scalar barabasi_100nodes_network.client[65] 	avg_time[65].real 	0
scalar barabasi_100nodes_network.client[66] 	hdistance[66].real 	1.5004919044205
scalar barabasi_100nodes_network.client[66] 	downloads[66].real 	179913
scalar barabasi_100nodes_network.client[66] 	avg_time[66].real 	0
scalar barabasi_100nodes_network.client[67] 	hdistance[67].real 	1.2912528573105
scalar barabasi_100nodes_network.client[67] 	downloads[67].real 	178927
scalar barabasi_100nodes_network.client[67] 	avg_time[67].real 	0
scalar barabasi_100nodes_network.client[68] 	hdistance[68].real 	1.496685030764
scalar barabasi_100nodes_network.client[68] 	downloads[68].real 	180243
scalar barabasi_100nodes_network.client[68] 	avg_time[68].real 	0
scalar barabasi_100nodes_network.client[69] 	hdistance[69].real 	1.1813886242273
scalar barabasi_100nodes_network.client[69] 	downloads[69].real 	180524
scalar barabasi_100nodes_network.client[69] 	avg_time[69].real 	0
scalar barabasi_100nodes_network.client[70] 	hdistance[70].real 	1.7665505614847
scalar barabasi_100nodes_network.client[70] 	downloads[70].real 	179435
scalar barabasi_100nodes_network.client[70] 	avg_time[70].real 	0
scalar barabasi_100nodes_network.client[71] 	hdistance[71].real 	1.3536119137586
scalar barabasi_100nodes_network.client[71] 	downloads[71].real 	179960
scalar barabasi_100nodes_network.client[71] 	avg_time[71].real 	0
scalar barabasi_100nodes_network.client[72] 	hdistance[72].real 	1.5014941456153
scalar barabasi_100nodes_network.client[72] 	downloads[72].real 	180036
scalar barabasi_100nodes_network.client[72] 	avg_time[72].real 	0
scalar barabasi_100nodes_network.client[73] 	hdistance[73].real 	1.4239434897628
scalar barabasi_100nodes_network.client[73] 	downloads[73].real 	179932
scalar barabasi_100nodes_network.client[73] 	avg_time[73].real 	0
scalar barabasi_100nodes_network.client[74] 	hdistance[74].real 	1.3932110408217
scalar barabasi_100nodes_network.client[74] 	downloads[74].real 	179733
scalar barabasi_100nodes_network.client[74] 	avg_time[74].real 	0
scalar barabasi_100nodes_network.client[75] 	hdistance[75].real 	1.532171656111
scalar barabasi_100nodes_network.client[75] 	downloads[75].real 	180314
scalar barabasi_100nodes_network.client[75] 	avg_time[75].real 	0
scalar barabasi_100nodes_network.client[76] 	hdistance[76].real 	1.6310024193638
scalar barabasi_100nodes_network.client[76] 	downloads[76].real 	179386
scalar barabasi_100nodes_network.client[76] 	avg_time[76].real 	0
scalar barabasi_100nodes_network.client[77] 	hdistance[77].real 	1.560651026555
scalar barabasi_100nodes_network.client[77] 	downloads[77].real 	180945
scalar barabasi_100nodes_network.client[77] 	avg_time[77].real 	0
scalar barabasi_100nodes_network.client[78] 	hdistance[78].real 	1.3734589555979
scalar barabasi_100nodes_network.client[78] 	downloads[78].real 	179586
scalar barabasi_100nodes_network.client[78] 	avg_time[78].real 	0
scalar barabasi_100nodes_network.client[79] 	hdistance[79].real 	1.2769880225588
scalar barabasi_100nodes_network.client[79] 	downloads[79].real 	180506
scalar barabasi_100nodes_network.client[79] 	avg_time[79].real 	0
scalar barabasi_100nodes_network.client[80] 	hdistance[80].real 	1.7654043216752
scalar barabasi_100nodes_network.client[80] 	downloads[80].real 	179560
scalar barabasi_100nodes_network.client[80] 	avg_time[80].real 	0
scalar barabasi_100nodes_network.client[81] 	hdistance[81].real 	1.2537200937713
scalar barabasi_100nodes_network.client[81] 	downloads[81].real 	180439
scalar barabasi_100nodes_network.client[81] 	avg_time[81].real 	0
scalar barabasi_100nodes_network.client[82] 	hdistance[82].real 	1.4403092312662
scalar barabasi_100nodes_network.client[82] 	downloads[82].real 	179542
scalar barabasi_100nodes_network.client[82] 	avg_time[82].real 	0
scalar barabasi_100nodes_network.client[83] 	hdistance[83].real 	1.3422676737294
scalar barabasi_100nodes_network.client[83] 	downloads[83].real 	179532
scalar barabasi_100nodes_network.client[83] 	avg_time[83].real 	0
scalar barabasi_100nodes_network.client[84] 	hdistance[84].real 	1.584997542778
scalar barabasi_100nodes_network.client[84] 	downloads[84].real 	179064
scalar barabasi_100nodes_network.client[84] 	avg_time[84].real 	0
scalar barabasi_100nodes_network.client[85] 	hdistance[85].real 	1.5061528515303
scalar barabasi_100nodes_network.client[85] 	downloads[85].real 	180973
scalar barabasi_100nodes_network.client[85] 	avg_time[85].real 	0
scalar barabasi_100nodes_network.client[86] 	hdistance[86].real 	1.3509816247851
scalar barabasi_100nodes_network.client[86] 	downloads[86].real 	179753
scalar barabasi_100nodes_network.client[86] 	avg_time[86].real 	0
scalar barabasi_100nodes_network.client[87] 	hdistance[87].real 	1.555208913649
scalar barabasi_100nodes_network.client[87] 	downloads[87].real 	179500
scalar barabasi_100nodes_network.client[87] 	avg_time[87].real 	0
scalar barabasi_100nodes_network.client[88] 	hdistance[88].real 	1.7493676937359
scalar barabasi_100nodes_network.client[88] 	downloads[88].real 	179897
scalar barabasi_100nodes_network.client[88] 	avg_time[88].real 	0
scalar barabasi_100nodes_network.client[89] 	hdistance[89].real 	1.5650302324291
scalar barabasi_100nodes_network.client[89] 	downloads[89].real 	180270
scalar barabasi_100nodes_network.client[89] 	avg_time[89].real 	0
scalar barabasi_100nodes_network.client[90] 	hdistance[90].real 	1.1891945895243
scalar barabasi_100nodes_network.client[90] 	downloads[90].real 	180169
scalar barabasi_100nodes_network.client[90] 	avg_time[90].real 	0
scalar barabasi_100nodes_network.client[91] 	hdistance[91].real 	1.4935296370934
scalar barabasi_100nodes_network.client[91] 	downloads[91].real 	180129
scalar barabasi_100nodes_network.client[91] 	avg_time[91].real 	0
scalar barabasi_100nodes_network.client[92] 	hdistance[92].real 	1.7850249343248
scalar barabasi_100nodes_network.client[92] 	downloads[92].real 	179672
scalar barabasi_100nodes_network.client[92] 	avg_time[92].real 	0
scalar barabasi_100nodes_network.client[93] 	hdistance[93].real 	1.3876863181313
scalar barabasi_100nodes_network.client[93] 	downloads[93].real 	179800
scalar barabasi_100nodes_network.client[93] 	avg_time[93].real 	0
scalar barabasi_100nodes_network.client[94] 	hdistance[94].real 	1.6338512559111
scalar barabasi_100nodes_network.client[94] 	downloads[94].real 	179113
scalar barabasi_100nodes_network.client[94] 	avg_time[94].real 	0
scalar barabasi_100nodes_network.client[95] 	hdistance[95].real 	1.4960885051987
scalar barabasi_100nodes_network.client[95] 	downloads[95].real 	180238
scalar barabasi_100nodes_network.client[95] 	avg_time[95].real 	0
scalar barabasi_100nodes_network.client[96] 	hdistance[96].real 	1.7639704090899
scalar barabasi_100nodes_network.client[96] 	downloads[96].real 	180596
scalar barabasi_100nodes_network.client[96] 	avg_time[96].real 	0
scalar barabasi_100nodes_network.client[97] 	hdistance[97].real 	1.5330482029037
scalar barabasi_100nodes_network.client[97] 	downloads[97].real 	180736
scalar barabasi_100nodes_network.client[97] 	avg_time[97].real 	0
scalar barabasi_100nodes_network.client[98] 	hdistance[98].real 	1.7018640442259
scalar barabasi_100nodes_network.client[98] 	downloads[98].real 	179985
scalar barabasi_100nodes_network.client[98] 	avg_time[98].real 	0
scalar barabasi_100nodes_network.client[99] 	hdistance[99].real 	1.7469627519915
scalar barabasi_100nodes_network.client[99] 	downloads[99].real 	179768
scalar barabasi_100nodes_network.client[99] 	avg_time[99].real 	0
