version 2
run General-0-20150724-11:05:40-27619
attr C 1e4
attr D lce
attr F spr
attr R partitionedn
attr a 1
attr brates 0.3_0.7_1.5_2.5_3.5
attr configname General
attr ctlg 1e6
attr datetime 20150724-11:05:40
attr experiment General
attr inifile omnetpp.ini
attr iterationvars "$net=barabasi_100nodes, $rep=0, $lambda=100, $a=1, $ctlg=1e6, $brates=0.3_0.7_1.5_2.5_3.5, $F=spr, $ttl=1000, $D=lce, $R=partitionedn, $C=1e4, $window=60, $variance=0.05, $mytime=1800"
attr iterationvars2 "$net=barabasi_100nodes, $rep=0, $lambda=100, $a=1, $ctlg=1e6, $brates=0.3_0.7_1.5_2.5_3.5, $F=spr, $ttl=1000, $D=lce, $R=partitionedn, $C=1e4, $window=60, $variance=0.05, $mytime=1800, $repetition=0"
attr lambda 100
attr measurement "$net=barabasi_100nodes, $rep=0, $lambda=100, $a=1, $ctlg=1e6, $brates=0.3_0.7_1.5_2.5_3.5, $F=spr, $ttl=1000, $D=lce, $R=partitionedn, $C=1e4, $window=60, $variance=0.05, $mytime=1800"
attr mytime 1800
attr net barabasi_100nodes
attr network networks.${net=barabasi_100nodes}_network
attr processid 27619
attr rep 0
attr repetition 0
attr replication #0
attr resultdir results
attr runnumber 0
attr seedset 0
attr ttl 1000
attr variance 0.05
attr window 60

scalar . 	C 	1e4
scalar . 	a 	1
scalar . 	ctlg 	1e6
scalar . 	lambda 	100
scalar . 	mytime 	1800
scalar . 	rep 	0
scalar . 	ttl 	1000
scalar . 	variance 	0.05
scalar . 	window 	60
scalar barabasi_100nodes_network.content_distribution 	repo-0 	37
scalar barabasi_100nodes_network.content_distribution 	repo-1 	12
scalar barabasi_100nodes_network.content_distribution 	repo-2 	72
scalar barabasi_100nodes_network.content_distribution 	repo-3 	9
scalar barabasi_100nodes_network.content_distribution 	repo-4 	75
scalar barabasi_100nodes_network.content_distribution 	repo-5 	5
scalar barabasi_100nodes_network.content_distribution 	repo-6 	79
scalar barabasi_100nodes_network.content_distribution 	repo-7 	64
scalar barabasi_100nodes_network.content_distribution 	repo-8 	16
scalar barabasi_100nodes_network.content_distribution 	repo-9 	1
scalar barabasi_100nodes_network.content_distribution 	repo-10 	76
scalar barabasi_100nodes_network.content_distribution 	repo-11 	71
scalar barabasi_100nodes_network.content_distribution 	repo-12 	6
scalar barabasi_100nodes_network.content_distribution 	repo-13 	25
scalar barabasi_100nodes_network.content_distribution 	repo-14 	50
scalar barabasi_100nodes_network.content_distribution 	repo-15 	20
scalar barabasi_100nodes_network.content_distribution 	repo-16 	18
scalar barabasi_100nodes_network.content_distribution 	repo-17 	84
scalar barabasi_100nodes_network.content_distribution 	repo-18 	11
scalar barabasi_100nodes_network.content_distribution 	repo-19 	28
scalar barabasi_100nodes_network.content_distribution 	repo-20 	29
scalar barabasi_100nodes_network.content_distribution 	repo-21 	14
scalar barabasi_100nodes_network.content_distribution 	repo-22 	68
scalar barabasi_100nodes_network.content_distribution 	repo-23 	87
scalar barabasi_100nodes_network.content_distribution 	repo-24 	94
scalar barabasi_100nodes_network.content_distribution 	repo-25 	96
scalar barabasi_100nodes_network.content_distribution 	repo-26 	86
scalar barabasi_100nodes_network.content_distribution 	repo-27 	13
scalar barabasi_100nodes_network.content_distribution 	repo-28 	7
scalar barabasi_100nodes_network.content_distribution 	repo-29 	63
scalar barabasi_100nodes_network.content_distribution 	repo-30 	61
scalar barabasi_100nodes_network.content_distribution 	repo-31 	22
scalar barabasi_100nodes_network.content_distribution 	repo-32 	57
scalar barabasi_100nodes_network.content_distribution 	repo-33 	0
scalar barabasi_100nodes_network.content_distribution 	repo-34 	60
scalar barabasi_100nodes_network.content_distribution 	repo-35 	81
scalar barabasi_100nodes_network.content_distribution 	repo-36 	8
scalar barabasi_100nodes_network.content_distribution 	repo-37 	88
scalar barabasi_100nodes_network.content_distribution 	repo-38 	47
scalar barabasi_100nodes_network.content_distribution 	repo-39 	30
scalar barabasi_100nodes_network.content_distribution 	repo-40 	3
scalar barabasi_100nodes_network.content_distribution 	repo-41 	70
scalar barabasi_100nodes_network.content_distribution 	repo-42 	21
scalar barabasi_100nodes_network.content_distribution 	repo-43 	49
scalar barabasi_100nodes_network.content_distribution 	repo-44 	24
scalar barabasi_100nodes_network.content_distribution 	repo-45 	43
scalar barabasi_100nodes_network.content_distribution 	repo-46 	26
scalar barabasi_100nodes_network.content_distribution 	repo-47 	52
scalar barabasi_100nodes_network.content_distribution 	repo-48 	80
scalar barabasi_100nodes_network.content_distribution 	repo-49 	41
scalar barabasi_100nodes_network.content_distribution 	repo-50 	82
scalar barabasi_100nodes_network.content_distribution 	repo-51 	15
scalar barabasi_100nodes_network.content_distribution 	repo-52 	98
scalar barabasi_100nodes_network.content_distribution 	repo-53 	67
scalar barabasi_100nodes_network.content_distribution 	repo-54 	23
scalar barabasi_100nodes_network.content_distribution 	repo-55 	27
scalar barabasi_100nodes_network.content_distribution 	repo-56 	83
scalar barabasi_100nodes_network.content_distribution 	repo-57 	38
scalar barabasi_100nodes_network.content_distribution 	repo-58 	32
scalar barabasi_100nodes_network.content_distribution 	repo-59 	34
scalar barabasi_100nodes_network.content_distribution 	repo-60 	10
scalar barabasi_100nodes_network.content_distribution 	repo-61 	92
scalar barabasi_100nodes_network.content_distribution 	repo-62 	74
scalar barabasi_100nodes_network.content_distribution 	repo-63 	62
scalar barabasi_100nodes_network.content_distribution 	repo-64 	46
scalar barabasi_100nodes_network.content_distribution 	repo-65 	55
scalar barabasi_100nodes_network.content_distribution 	repo-66 	65
scalar barabasi_100nodes_network.content_distribution 	repo-67 	77
scalar barabasi_100nodes_network.content_distribution 	repo-68 	85
scalar barabasi_100nodes_network.content_distribution 	repo-69 	2
scalar barabasi_100nodes_network.content_distribution 	repo-70 	91
scalar barabasi_100nodes_network.content_distribution 	repo-71 	36
scalar barabasi_100nodes_network.content_distribution 	repo-72 	45
scalar barabasi_100nodes_network.content_distribution 	repo-73 	97
scalar barabasi_100nodes_network.content_distribution 	repo-74 	54
scalar barabasi_100nodes_network.content_distribution 	repo-75 	66
scalar barabasi_100nodes_network.content_distribution 	repo-76 	48
scalar barabasi_100nodes_network.content_distribution 	repo-77 	17
scalar barabasi_100nodes_network.content_distribution 	repo-78 	42
scalar barabasi_100nodes_network.content_distribution 	repo-79 	53
scalar barabasi_100nodes_network.content_distribution 	repo-80 	56
scalar barabasi_100nodes_network.content_distribution 	repo-81 	89
scalar barabasi_100nodes_network.content_distribution 	repo-82 	59
scalar barabasi_100nodes_network.content_distribution 	repo-83 	69
scalar barabasi_100nodes_network.content_distribution 	repo-84 	40
scalar barabasi_100nodes_network.content_distribution 	repo-85 	78
scalar barabasi_100nodes_network.content_distribution 	repo-86 	35
scalar barabasi_100nodes_network.content_distribution 	repo-87 	93
scalar barabasi_100nodes_network.content_distribution 	repo-88 	33
scalar barabasi_100nodes_network.content_distribution 	repo-89 	31
scalar barabasi_100nodes_network.content_distribution 	repo-90 	99
scalar barabasi_100nodes_network.content_distribution 	repo-91 	44
scalar barabasi_100nodes_network.content_distribution 	repo-92 	19
scalar barabasi_100nodes_network.content_distribution 	repo-93 	39
scalar barabasi_100nodes_network.content_distribution 	repo-94 	51
scalar barabasi_100nodes_network.content_distribution 	repo-95 	58
scalar barabasi_100nodes_network.content_distribution 	repo-96 	73
scalar barabasi_100nodes_network.content_distribution 	repo-97 	95
scalar barabasi_100nodes_network.content_distribution 	repo-98 	4
scalar barabasi_100nodes_network.content_distribution 	repo-99 	90
scalar barabasi_100nodes_network.content_distribution 	client-0 	27
scalar barabasi_100nodes_network.content_distribution 	client-1 	60
scalar barabasi_100nodes_network.content_distribution 	client-2 	12
scalar barabasi_100nodes_network.content_distribution 	client-3 	17
scalar barabasi_100nodes_network.content_distribution 	client-4 	71
scalar barabasi_100nodes_network.content_distribution 	client-5 	91
scalar barabasi_100nodes_network.content_distribution 	client-6 	7
scalar barabasi_100nodes_network.content_distribution 	client-7 	83
scalar barabasi_100nodes_network.content_distribution 	client-8 	56
scalar barabasi_100nodes_network.content_distribution 	client-9 	51
scalar barabasi_100nodes_network.content_distribution 	client-10 	32
scalar barabasi_100nodes_network.content_distribution 	client-11 	76
scalar barabasi_100nodes_network.content_distribution 	client-12 	62
scalar barabasi_100nodes_network.content_distribution 	client-13 	96
scalar barabasi_100nodes_network.content_distribution 	client-14 	30
scalar barabasi_100nodes_network.content_distribution 	client-15 	22
scalar barabasi_100nodes_network.content_distribution 	client-16 	5
scalar barabasi_100nodes_network.content_distribution 	client-17 	95
scalar barabasi_100nodes_network.content_distribution 	client-18 	18
scalar barabasi_100nodes_network.content_distribution 	client-19 	93
scalar barabasi_100nodes_network.content_distribution 	client-20 	29
scalar barabasi_100nodes_network.content_distribution 	client-21 	52
scalar barabasi_100nodes_network.content_distribution 	client-22 	31
scalar barabasi_100nodes_network.content_distribution 	client-23 	49
scalar barabasi_100nodes_network.content_distribution 	client-24 	98
scalar barabasi_100nodes_network.content_distribution 	client-25 	45
scalar barabasi_100nodes_network.content_distribution 	client-26 	86
scalar barabasi_100nodes_network.content_distribution 	client-27 	15
scalar barabasi_100nodes_network.content_distribution 	client-28 	48
scalar barabasi_100nodes_network.content_distribution 	client-29 	28
scalar barabasi_100nodes_network.content_distribution 	client-30 	43
scalar barabasi_100nodes_network.content_distribution 	client-31 	19
scalar barabasi_100nodes_network.content_distribution 	client-32 	79
scalar barabasi_100nodes_network.content_distribution 	client-33 	70
scalar barabasi_100nodes_network.content_distribution 	client-34 	88
scalar barabasi_100nodes_network.content_distribution 	client-35 	11
scalar barabasi_100nodes_network.content_distribution 	client-36 	65
scalar barabasi_100nodes_network.content_distribution 	client-37 	63
scalar barabasi_100nodes_network.content_distribution 	client-38 	42
scalar barabasi_100nodes_network.content_distribution 	client-39 	82
scalar barabasi_100nodes_network.content_distribution 	client-40 	40
scalar barabasi_100nodes_network.content_distribution 	client-41 	44
scalar barabasi_100nodes_network.content_distribution 	client-42 	16
scalar barabasi_100nodes_network.content_distribution 	client-43 	0
scalar barabasi_100nodes_network.content_distribution 	client-44 	97
scalar barabasi_100nodes_network.content_distribution 	client-45 	14
scalar barabasi_100nodes_network.content_distribution 	client-46 	36
scalar barabasi_100nodes_network.content_distribution 	client-47 	26
scalar barabasi_100nodes_network.content_distribution 	client-48 	1
scalar barabasi_100nodes_network.content_distribution 	client-49 	34
scalar barabasi_100nodes_network.content_distribution 	client-50 	94
scalar barabasi_100nodes_network.content_distribution 	client-51 	21
scalar barabasi_100nodes_network.content_distribution 	client-52 	68
scalar barabasi_100nodes_network.content_distribution 	client-53 	67
scalar barabasi_100nodes_network.content_distribution 	client-54 	64
scalar barabasi_100nodes_network.content_distribution 	client-55 	89
scalar barabasi_100nodes_network.content_distribution 	client-56 	33
scalar barabasi_100nodes_network.content_distribution 	client-57 	58
scalar barabasi_100nodes_network.content_distribution 	client-58 	4
scalar barabasi_100nodes_network.content_distribution 	client-59 	61
scalar barabasi_100nodes_network.content_distribution 	client-60 	50
scalar barabasi_100nodes_network.content_distribution 	client-61 	92
scalar barabasi_100nodes_network.content_distribution 	client-62 	25
scalar barabasi_100nodes_network.content_distribution 	client-63 	13
scalar barabasi_100nodes_network.content_distribution 	client-64 	38
scalar barabasi_100nodes_network.content_distribution 	client-65 	85
scalar barabasi_100nodes_network.content_distribution 	client-66 	84
scalar barabasi_100nodes_network.content_distribution 	client-67 	75
scalar barabasi_100nodes_network.content_distribution 	client-68 	99
scalar barabasi_100nodes_network.content_distribution 	client-69 	66
scalar barabasi_100nodes_network.content_distribution 	client-70 	74
scalar barabasi_100nodes_network.content_distribution 	client-71 	37
scalar barabasi_100nodes_network.content_distribution 	client-72 	72
scalar barabasi_100nodes_network.content_distribution 	client-73 	24
scalar barabasi_100nodes_network.content_distribution 	client-74 	41
scalar barabasi_100nodes_network.content_distribution 	client-75 	46
scalar barabasi_100nodes_network.content_distribution 	client-76 	35
scalar barabasi_100nodes_network.content_distribution 	client-77 	57
scalar barabasi_100nodes_network.content_distribution 	client-78 	6
scalar barabasi_100nodes_network.content_distribution 	client-79 	3
scalar barabasi_100nodes_network.content_distribution 	client-80 	20
scalar barabasi_100nodes_network.content_distribution 	client-81 	9
scalar barabasi_100nodes_network.content_distribution 	client-82 	90
scalar barabasi_100nodes_network.content_distribution 	client-83 	69
scalar barabasi_100nodes_network.content_distribution 	client-84 	23
scalar barabasi_100nodes_network.content_distribution 	client-85 	39
scalar barabasi_100nodes_network.content_distribution 	client-86 	87
scalar barabasi_100nodes_network.content_distribution 	client-87 	10
scalar barabasi_100nodes_network.content_distribution 	client-88 	78
scalar barabasi_100nodes_network.content_distribution 	client-89 	59
scalar barabasi_100nodes_network.content_distribution 	client-90 	53
scalar barabasi_100nodes_network.content_distribution 	client-91 	77
scalar barabasi_100nodes_network.content_distribution 	client-92 	55
scalar barabasi_100nodes_network.content_distribution 	client-93 	80
scalar barabasi_100nodes_network.content_distribution 	client-94 	47
scalar barabasi_100nodes_network.content_distribution 	client-95 	81
scalar barabasi_100nodes_network.content_distribution 	client-96 	54
scalar barabasi_100nodes_network.content_distribution 	client-97 	8
scalar barabasi_100nodes_network.content_distribution 	client-98 	73
scalar barabasi_100nodes_network.content_distribution 	client-99 	2
scalar barabasi_100nodes_network.content_distribution 	repo-0_card 	250050
scalar barabasi_100nodes_network.content_distribution 	repo-0_price 	0
scalar barabasi_100nodes_network.content_distribution 	repo-1_card 	250103
scalar barabasi_100nodes_network.content_distribution 	repo-1_price 	0
scalar barabasi_100nodes_network.content_distribution 	repo-2_card 	249952
scalar barabasi_100nodes_network.content_distribution 	repo-2_price 	0
scalar barabasi_100nodes_network.content_distribution 	repo-3_card 	249895
scalar barabasi_100nodes_network.content_distribution 	repo-3_price 	0
scalar barabasi_100nodes_network.content_distribution 	repo-4_card 	0
scalar barabasi_100nodes_network.content_distribution 	repo-4_price 	0
scalar barabasi_100nodes_network.content_distribution 	repo-5_card 	0
scalar barabasi_100nodes_network.content_distribution 	repo-5_price 	0
scalar barabasi_100nodes_network.content_distribution 	repo-6_card 	0
scalar barabasi_100nodes_network.content_distribution 	repo-6_price 	0
scalar barabasi_100nodes_network.content_distribution 	repo-7_card 	0
scalar barabasi_100nodes_network.content_distribution 	repo-7_price 	0
scalar barabasi_100nodes_network.content_distribution 	repo-8_card 	0
scalar barabasi_100nodes_network.content_distribution 	repo-8_price 	0
scalar barabasi_100nodes_network.content_distribution 	repo-9_card 	0
scalar barabasi_100nodes_network.content_distribution 	repo-9_price 	0
scalar barabasi_100nodes_network.content_distribution 	repo-10_card 	0
scalar barabasi_100nodes_network.content_distribution 	repo-10_price 	0
scalar barabasi_100nodes_network.content_distribution 	repo-11_card 	0
scalar barabasi_100nodes_network.content_distribution 	repo-11_price 	0
scalar barabasi_100nodes_network.content_distribution 	repo-12_card 	0
scalar barabasi_100nodes_network.content_distribution 	repo-12_price 	0
scalar barabasi_100nodes_network.content_distribution 	repo-13_card 	0
scalar barabasi_100nodes_network.content_distribution 	repo-13_price 	0
scalar barabasi_100nodes_network.content_distribution 	repo-14_card 	0
scalar barabasi_100nodes_network.content_distribution 	repo-14_price 	0
scalar barabasi_100nodes_network.content_distribution 	repo-15_card 	0
scalar barabasi_100nodes_network.content_distribution 	repo-15_price 	0
scalar barabasi_100nodes_network.content_distribution 	repo-16_card 	0
scalar barabasi_100nodes_network.content_distribution 	repo-16_price 	0
scalar barabasi_100nodes_network.content_distribution 	repo-17_card 	0
scalar barabasi_100nodes_network.content_distribution 	repo-17_price 	0
scalar barabasi_100nodes_network.content_distribution 	repo-18_card 	0
scalar barabasi_100nodes_network.content_distribution 	repo-18_price 	0
scalar barabasi_100nodes_network.content_distribution 	repo-19_card 	0
scalar barabasi_100nodes_network.content_distribution 	repo-19_price 	0
scalar barabasi_100nodes_network.content_distribution 	repo-20_card 	0
scalar barabasi_100nodes_network.content_distribution 	repo-20_price 	0
scalar barabasi_100nodes_network.content_distribution 	repo-21_card 	0
scalar barabasi_100nodes_network.content_distribution 	repo-21_price 	0
scalar barabasi_100nodes_network.content_distribution 	repo-22_card 	0
scalar barabasi_100nodes_network.content_distribution 	repo-22_price 	0
scalar barabasi_100nodes_network.content_distribution 	repo-23_card 	0
scalar barabasi_100nodes_network.content_distribution 	repo-23_price 	0
scalar barabasi_100nodes_network.content_distribution 	repo-24_card 	0
scalar barabasi_100nodes_network.content_distribution 	repo-24_price 	0
scalar barabasi_100nodes_network.content_distribution 	repo-25_card 	0
scalar barabasi_100nodes_network.content_distribution 	repo-25_price 	0
scalar barabasi_100nodes_network.content_distribution 	repo-26_card 	0
scalar barabasi_100nodes_network.content_distribution 	repo-26_price 	0
scalar barabasi_100nodes_network.content_distribution 	repo-27_card 	0
scalar barabasi_100nodes_network.content_distribution 	repo-27_price 	0
scalar barabasi_100nodes_network.content_distribution 	repo-28_card 	0
scalar barabasi_100nodes_network.content_distribution 	repo-28_price 	0
scalar barabasi_100nodes_network.content_distribution 	repo-29_card 	0
scalar barabasi_100nodes_network.content_distribution 	repo-29_price 	0
scalar barabasi_100nodes_network.content_distribution 	repo-30_card 	0
scalar barabasi_100nodes_network.content_distribution 	repo-30_price 	0
scalar barabasi_100nodes_network.content_distribution 	repo-31_card 	0
scalar barabasi_100nodes_network.content_distribution 	repo-31_price 	0
scalar barabasi_100nodes_network.content_distribution 	repo-32_card 	0
scalar barabasi_100nodes_network.content_distribution 	repo-32_price 	0
scalar barabasi_100nodes_network.content_distribution 	repo-33_card 	0
scalar barabasi_100nodes_network.content_distribution 	repo-33_price 	0
scalar barabasi_100nodes_network.content_distribution 	repo-34_card 	0
scalar barabasi_100nodes_network.content_distribution 	repo-34_price 	0
scalar barabasi_100nodes_network.content_distribution 	repo-35_card 	0
scalar barabasi_100nodes_network.content_distribution 	repo-35_price 	0
scalar barabasi_100nodes_network.content_distribution 	repo-36_card 	0
scalar barabasi_100nodes_network.content_distribution 	repo-36_price 	0
scalar barabasi_100nodes_network.content_distribution 	repo-37_card 	0
scalar barabasi_100nodes_network.content_distribution 	repo-37_price 	0
scalar barabasi_100nodes_network.content_distribution 	repo-38_card 	0
scalar barabasi_100nodes_network.content_distribution 	repo-38_price 	0
scalar barabasi_100nodes_network.content_distribution 	repo-39_card 	0
scalar barabasi_100nodes_network.content_distribution 	repo-39_price 	0
scalar barabasi_100nodes_network.content_distribution 	repo-40_card 	0
scalar barabasi_100nodes_network.content_distribution 	repo-40_price 	0
scalar barabasi_100nodes_network.content_distribution 	repo-41_card 	0
scalar barabasi_100nodes_network.content_distribution 	repo-41_price 	0
scalar barabasi_100nodes_network.content_distribution 	repo-42_card 	0
scalar barabasi_100nodes_network.content_distribution 	repo-42_price 	0
scalar barabasi_100nodes_network.content_distribution 	repo-43_card 	0
scalar barabasi_100nodes_network.content_distribution 	repo-43_price 	0
scalar barabasi_100nodes_network.content_distribution 	repo-44_card 	0
scalar barabasi_100nodes_network.content_distribution 	repo-44_price 	0
scalar barabasi_100nodes_network.content_distribution 	repo-45_card 	0
scalar barabasi_100nodes_network.content_distribution 	repo-45_price 	0
scalar barabasi_100nodes_network.content_distribution 	repo-46_card 	0
scalar barabasi_100nodes_network.content_distribution 	repo-46_price 	0
scalar barabasi_100nodes_network.content_distribution 	repo-47_card 	0
scalar barabasi_100nodes_network.content_distribution 	repo-47_price 	0
scalar barabasi_100nodes_network.content_distribution 	repo-48_card 	0
scalar barabasi_100nodes_network.content_distribution 	repo-48_price 	0
scalar barabasi_100nodes_network.content_distribution 	repo-49_card 	0
scalar barabasi_100nodes_network.content_distribution 	repo-49_price 	0
scalar barabasi_100nodes_network.content_distribution 	repo-50_card 	0
scalar barabasi_100nodes_network.content_distribution 	repo-50_price 	0
scalar barabasi_100nodes_network.content_distribution 	repo-51_card 	0
scalar barabasi_100nodes_network.content_distribution 	repo-51_price 	0
scalar barabasi_100nodes_network.content_distribution 	repo-52_card 	0
scalar barabasi_100nodes_network.content_distribution 	repo-52_price 	0
scalar barabasi_100nodes_network.content_distribution 	repo-53_card 	0
scalar barabasi_100nodes_network.content_distribution 	repo-53_price 	0
scalar barabasi_100nodes_network.content_distribution 	repo-54_card 	0
scalar barabasi_100nodes_network.content_distribution 	repo-54_price 	0
scalar barabasi_100nodes_network.content_distribution 	repo-55_card 	0
scalar barabasi_100nodes_network.content_distribution 	repo-55_price 	0
scalar barabasi_100nodes_network.content_distribution 	repo-56_card 	0
scalar barabasi_100nodes_network.content_distribution 	repo-56_price 	0
scalar barabasi_100nodes_network.content_distribution 	repo-57_card 	0
scalar barabasi_100nodes_network.content_distribution 	repo-57_price 	0
scalar barabasi_100nodes_network.content_distribution 	repo-58_card 	0
scalar barabasi_100nodes_network.content_distribution 	repo-58_price 	0
scalar barabasi_100nodes_network.content_distribution 	repo-59_card 	0
scalar barabasi_100nodes_network.content_distribution 	repo-59_price 	0
scalar barabasi_100nodes_network.content_distribution 	repo-60_card 	0
scalar barabasi_100nodes_network.content_distribution 	repo-60_price 	0
scalar barabasi_100nodes_network.content_distribution 	repo-61_card 	0
scalar barabasi_100nodes_network.content_distribution 	repo-61_price 	0
scalar barabasi_100nodes_network.content_distribution 	repo-62_card 	0
scalar barabasi_100nodes_network.content_distribution 	repo-62_price 	0
scalar barabasi_100nodes_network.content_distribution 	repo-63_card 	0
scalar barabasi_100nodes_network.content_distribution 	repo-63_price 	0
scalar barabasi_100nodes_network.content_distribution 	repo-64_card 	0
scalar barabasi_100nodes_network.content_distribution 	repo-64_price 	0
scalar barabasi_100nodes_network.content_distribution 	repo-65_card 	0
scalar barabasi_100nodes_network.content_distribution 	repo-65_price 	0
scalar barabasi_100nodes_network.content_distribution 	repo-66_card 	0
scalar barabasi_100nodes_network.content_distribution 	repo-66_price 	0
scalar barabasi_100nodes_network.content_distribution 	repo-67_card 	0
scalar barabasi_100nodes_network.content_distribution 	repo-67_price 	0
scalar barabasi_100nodes_network.content_distribution 	repo-68_card 	0
scalar barabasi_100nodes_network.content_distribution 	repo-68_price 	0
scalar barabasi_100nodes_network.content_distribution 	repo-69_card 	0
scalar barabasi_100nodes_network.content_distribution 	repo-69_price 	0
scalar barabasi_100nodes_network.content_distribution 	repo-70_card 	0
scalar barabasi_100nodes_network.content_distribution 	repo-70_price 	0
scalar barabasi_100nodes_network.content_distribution 	repo-71_card 	0
scalar barabasi_100nodes_network.content_distribution 	repo-71_price 	0
scalar barabasi_100nodes_network.content_distribution 	repo-72_card 	0
scalar barabasi_100nodes_network.content_distribution 	repo-72_price 	0
scalar barabasi_100nodes_network.content_distribution 	repo-73_card 	0
scalar barabasi_100nodes_network.content_distribution 	repo-73_price 	0
scalar barabasi_100nodes_network.content_distribution 	repo-74_card 	0
scalar barabasi_100nodes_network.content_distribution 	repo-74_price 	0
scalar barabasi_100nodes_network.content_distribution 	repo-75_card 	0
scalar barabasi_100nodes_network.content_distribution 	repo-75_price 	0
scalar barabasi_100nodes_network.content_distribution 	repo-76_card 	0
scalar barabasi_100nodes_network.content_distribution 	repo-76_price 	0
scalar barabasi_100nodes_network.content_distribution 	repo-77_card 	0
scalar barabasi_100nodes_network.content_distribution 	repo-77_price 	0
scalar barabasi_100nodes_network.content_distribution 	repo-78_card 	0
scalar barabasi_100nodes_network.content_distribution 	repo-78_price 	0
scalar barabasi_100nodes_network.content_distribution 	repo-79_card 	0
scalar barabasi_100nodes_network.content_distribution 	repo-79_price 	0
scalar barabasi_100nodes_network.content_distribution 	repo-80_card 	0
scalar barabasi_100nodes_network.content_distribution 	repo-80_price 	0
scalar barabasi_100nodes_network.content_distribution 	repo-81_card 	0
scalar barabasi_100nodes_network.content_distribution 	repo-81_price 	0
scalar barabasi_100nodes_network.content_distribution 	repo-82_card 	0
scalar barabasi_100nodes_network.content_distribution 	repo-82_price 	0
scalar barabasi_100nodes_network.content_distribution 	repo-83_card 	0
scalar barabasi_100nodes_network.content_distribution 	repo-83_price 	0
scalar barabasi_100nodes_network.content_distribution 	repo-84_card 	0
scalar barabasi_100nodes_network.content_distribution 	repo-84_price 	0
scalar barabasi_100nodes_network.content_distribution 	repo-85_card 	0
scalar barabasi_100nodes_network.content_distribution 	repo-85_price 	0
scalar barabasi_100nodes_network.content_distribution 	repo-86_card 	0
scalar barabasi_100nodes_network.content_distribution 	repo-86_price 	0
scalar barabasi_100nodes_network.content_distribution 	repo-87_card 	0
scalar barabasi_100nodes_network.content_distribution 	repo-87_price 	0
scalar barabasi_100nodes_network.content_distribution 	repo-88_card 	0
scalar barabasi_100nodes_network.content_distribution 	repo-88_price 	0
scalar barabasi_100nodes_network.content_distribution 	repo-89_card 	0
scalar barabasi_100nodes_network.content_distribution 	repo-89_price 	0
scalar barabasi_100nodes_network.content_distribution 	repo-90_card 	0
scalar barabasi_100nodes_network.content_distribution 	repo-90_price 	0
scalar barabasi_100nodes_network.content_distribution 	repo-91_card 	0
scalar barabasi_100nodes_network.content_distribution 	repo-91_price 	0
scalar barabasi_100nodes_network.content_distribution 	repo-92_card 	0
scalar barabasi_100nodes_network.content_distribution 	repo-92_price 	0
scalar barabasi_100nodes_network.content_distribution 	repo-93_card 	0
scalar barabasi_100nodes_network.content_distribution 	repo-93_price 	0
scalar barabasi_100nodes_network.content_distribution 	repo-94_card 	0
scalar barabasi_100nodes_network.content_distribution 	repo-94_price 	0
scalar barabasi_100nodes_network.content_distribution 	repo-95_card 	0
scalar barabasi_100nodes_network.content_distribution 	repo-95_price 	0
scalar barabasi_100nodes_network.content_distribution 	repo-96_card 	0
scalar barabasi_100nodes_network.content_distribution 	repo-96_price 	0
scalar barabasi_100nodes_network.content_distribution 	repo-97_card 	0
scalar barabasi_100nodes_network.content_distribution 	repo-97_price 	0
scalar barabasi_100nodes_network.content_distribution 	repo-98_card 	0
scalar barabasi_100nodes_network.content_distribution 	repo-98_price 	0
scalar barabasi_100nodes_network.content_distribution 	repo-99_card 	0
scalar barabasi_100nodes_network.content_distribution 	repo-99_price 	0
scalar barabasi_100nodes_network.statistics 	stabilization_time 	36060
scalar barabasi_100nodes_network.statistics 	p_hit 	0.29770062473083
scalar barabasi_100nodes_network.statistics 	interests 	467902.31
scalar barabasi_100nodes_network.statistics 	data 	258165.2
scalar barabasi_100nodes_network.statistics 	hdistance 	1.3864302618587
scalar barabasi_100nodes_network.statistics 	avg_time 	0
scalar barabasi_100nodes_network.statistics 	downloads 	18005122
scalar barabasi_100nodes_network.statistics 	total_cost 	0
scalar barabasi_100nodes_network.statistics 	total_replicas 	1000000
scalar barabasi_100nodes_network.statistics 	"representations_downloaded 0.311597:0.034634:0.0367551:0.0454934:0.57152:" 	0
scalar barabasi_100nodes_network.statistics 	"slots_per_representation 100:233:500:833:1167:" 	0
scalar barabasi_100nodes_network.statistics 	inner_hit 	0.60876521691994
scalar barabasi_100nodes_network.statistics 	execution_time 	21104
scalar barabasi_100nodes_network.node[0].core_layer 	interests[0] 	4759777
scalar barabasi_100nodes_network.node[0].core_layer 	repo_load[0] 	567902
scalar barabasi_100nodes_network.node[0].core_layer 	data[0] 	3548467
scalar barabasi_100nodes_network.node[0].core_layer 	slots_sent[face$o[1]->client[0]] 	100033784
scalar barabasi_100nodes_network.node[0].core_layer 	slots_sent[face$o[2]->node[1]] 	28659763
scalar barabasi_100nodes_network.node[0].core_layer 	slots_sent[face$o[3]->node[2]] 	909204685
scalar barabasi_100nodes_network.node[0].core_layer 	slots_sent[face$o[4]->node[5]] 	91029962
scalar barabasi_100nodes_network.node[0].core_layer 	slots_sent[face$o[5]->node[10]] 	55894731
scalar barabasi_100nodes_network.node[0].core_layer 	slots_sent[face$o[6]->node[11]] 	28929184
scalar barabasi_100nodes_network.node[0].core_layer 	slots_sent[face$o[7]->node[15]] 	83429427
scalar barabasi_100nodes_network.node[0].core_layer 	slots_sent[face$o[8]->node[21]] 	76320027
scalar barabasi_100nodes_network.node[0].core_layer 	slots_sent[face$o[9]->node[22]] 	29068681
scalar barabasi_100nodes_network.node[0].core_layer 	slots_sent[face$o[10]->node[28]] 	28707607
scalar barabasi_100nodes_network.node[0].core_layer 	slots_sent[face$o[11]->node[37]] 	20620382
scalar barabasi_100nodes_network.node[0].core_layer 	slots_sent[face$o[12]->node[44]] 	28890324
scalar barabasi_100nodes_network.node[0].core_layer 	slots_sent[face$o[13]->node[58]] 	56037036
scalar barabasi_100nodes_network.node[0].core_layer 	slots_sent[face$o[14]->node[73]] 	39509114
scalar barabasi_100nodes_network.node[0].core_layer 	slots_sent[face$o[15]->node[74]] 	28703994
scalar barabasi_100nodes_network.node[0].core_layer 	slots_sent[face$o[16]->node[93]] 	28810043
scalar barabasi_100nodes_network.node[0].content_store 	p_hit[0] 	0.13517608072815
scalar barabasi_100nodes_network.node[0].content_store 	hits[0] 	643408
scalar barabasi_100nodes_network.node[0].content_store 	misses[0] 	4116369
scalar barabasi_100nodes_network.node[0].content_store 	decision_yes[0] 	3548467
scalar barabasi_100nodes_network.node[0].content_store 	decision_no[0] 	567902
scalar barabasi_100nodes_network.node[0].content_store 	decision_ratio[0] 	0.86203812146093
scalar barabasi_100nodes_network.node[0].content_store 	"representation_breakdown[0] 0x7ffff5026a38:0x7ffff5026a38:0x7ffff5026a38:0x7ffff5026a38:0x7ffff5026a38:" 	0
scalar barabasi_100nodes_network.node[0].proactive_component 	hdistance[0].proactive_component 	2.2209184408178
scalar barabasi_100nodes_network.node[0].proactive_component 	downloads[0].proactive_component 	6590147
scalar barabasi_100nodes_network.node[0].proactive_component 	avg_time[0].proactive_component 	0
scalar barabasi_100nodes_network.node[1].core_layer 	interests[1] 	195182
scalar barabasi_100nodes_network.node[1].core_layer 	data[1] 	81140
scalar barabasi_100nodes_network.node[1].core_layer 	slots_sent[face$o[1]->client[1]] 	138790094
scalar barabasi_100nodes_network.node[1].core_layer 	slots_sent[face$o[2]->node[0]] 	0
scalar barabasi_100nodes_network.node[1].content_store 	p_hit[1] 	0.58428543615702
scalar barabasi_100nodes_network.node[1].content_store 	hits[1] 	114042
scalar barabasi_100nodes_network.node[1].content_store 	misses[1] 	81140
scalar barabasi_100nodes_network.node[1].content_store 	decision_yes[1] 	81140
scalar barabasi_100nodes_network.node[1].content_store 	decision_no[1] 	0
scalar barabasi_100nodes_network.node[1].content_store 	decision_ratio[1] 	1
scalar barabasi_100nodes_network.node[1].content_store 	"representation_breakdown[1] 0x7ffff5026a38:0x7ffff5026a38:0x7ffff5026a38:0x7ffff5026a38:0x7ffff5026a38:" 	0
scalar barabasi_100nodes_network.node[1].proactive_component 	hdistance[1].proactive_component 	2.5080812040512
scalar barabasi_100nodes_network.node[1].proactive_component 	downloads[1].proactive_component 	311216
scalar barabasi_100nodes_network.node[1].proactive_component 	avg_time[1].proactive_component 	0
scalar barabasi_100nodes_network.node[2].core_layer 	interests[2] 	6127135
scalar barabasi_100nodes_network.node[2].core_layer 	data[2] 	5126874
scalar barabasi_100nodes_network.node[2].core_layer 	slots_sent[face$o[1]->client[2]] 	126972496
scalar barabasi_100nodes_network.node[2].core_layer 	slots_sent[face$o[2]->node[0]] 	187127735
scalar barabasi_100nodes_network.node[2].core_layer 	slots_sent[face$o[3]->node[3]] 	62295006
scalar barabasi_100nodes_network.node[2].core_layer 	slots_sent[face$o[4]->node[4]] 	122476638
scalar barabasi_100nodes_network.node[2].core_layer 	slots_sent[face$o[5]->node[6]] 	32479107
scalar barabasi_100nodes_network.node[2].core_layer 	slots_sent[face$o[6]->node[7]] 	340213764
scalar barabasi_100nodes_network.node[2].core_layer 	slots_sent[face$o[7]->node[8]] 	184634352
scalar barabasi_100nodes_network.node[2].core_layer 	slots_sent[face$o[8]->node[13]] 	140658797
scalar barabasi_100nodes_network.node[2].core_layer 	slots_sent[face$o[9]->node[16]] 	203520267
scalar barabasi_100nodes_network.node[2].core_layer 	slots_sent[face$o[10]->node[18]] 	104886141
scalar barabasi_100nodes_network.node[2].core_layer 	slots_sent[face$o[11]->node[25]] 	62153176
scalar barabasi_100nodes_network.node[2].core_layer 	slots_sent[face$o[12]->node[26]] 	104036207
scalar barabasi_100nodes_network.node[2].core_layer 	slots_sent[face$o[13]->node[29]] 	32531360
scalar barabasi_100nodes_network.node[2].core_layer 	slots_sent[face$o[14]->node[32]] 	91597460
scalar barabasi_100nodes_network.node[2].core_layer 	slots_sent[face$o[15]->node[33]] 	32721681
scalar barabasi_100nodes_network.node[2].core_layer 	slots_sent[face$o[16]->node[34]] 	32723562
scalar barabasi_100nodes_network.node[2].core_layer 	slots_sent[face$o[17]->node[36]] 	61902259
scalar barabasi_100nodes_network.node[2].core_layer 	slots_sent[face$o[18]->node[41]] 	197572320
scalar barabasi_100nodes_network.node[2].core_layer 	slots_sent[face$o[19]->node[45]] 	32605638
scalar barabasi_100nodes_network.node[2].core_layer 	slots_sent[face$o[20]->node[59]] 	32698232
scalar barabasi_100nodes_network.node[2].core_layer 	slots_sent[face$o[21]->node[62]] 	91417524
scalar barabasi_100nodes_network.node[2].core_layer 	slots_sent[face$o[22]->node[79]] 	32510808
scalar barabasi_100nodes_network.node[2].content_store 	p_hit[2] 	0.16325101372828
scalar barabasi_100nodes_network.node[2].content_store 	hits[2] 	1000261
scalar barabasi_100nodes_network.node[2].content_store 	misses[2] 	5126874
scalar barabasi_100nodes_network.node[2].content_store 	decision_yes[2] 	5126874
scalar barabasi_100nodes_network.node[2].content_store 	decision_no[2] 	0
scalar barabasi_100nodes_network.node[2].content_store 	decision_ratio[2] 	1
scalar barabasi_100nodes_network.node[2].content_store 	"representation_breakdown[2] 0x7ffff5026a38:0x7ffff5026a38:0x7ffff5026a38:0x7ffff5026a38:0x7ffff5026a38:" 	0
scalar barabasi_100nodes_network.node[2].proactive_component 	hdistance[2].proactive_component 	2.2987573971528
scalar barabasi_100nodes_network.node[2].proactive_component 	downloads[2].proactive_component 	10437124
scalar barabasi_100nodes_network.node[2].proactive_component 	avg_time[2].proactive_component 	0
scalar barabasi_100nodes_network.node[3].core_layer 	interests[3] 	278887
scalar barabasi_100nodes_network.node[3].core_layer 	data[3] 	155899
scalar barabasi_100nodes_network.node[3].core_layer 	slots_sent[face$o[1]->client[3]] 	142158169
scalar barabasi_100nodes_network.node[3].core_layer 	slots_sent[face$o[2]->node[2]] 	0
scalar barabasi_100nodes_network.node[3].core_layer 	slots_sent[face$o[3]->node[52]] 	33452055
scalar barabasi_100nodes_network.node[3].content_store 	p_hit[3] 	0.44099581550951
scalar barabasi_100nodes_network.node[3].content_store 	hits[3] 	122988
scalar barabasi_100nodes_network.node[3].content_store 	misses[3] 	155899
scalar barabasi_100nodes_network.node[3].content_store 	decision_yes[3] 	155899
scalar barabasi_100nodes_network.node[3].content_store 	decision_no[3] 	0
scalar barabasi_100nodes_network.node[3].content_store 	decision_ratio[3] 	1
scalar barabasi_100nodes_network.node[3].content_store 	"representation_breakdown[3] 0x7ffff5026a38:0x7ffff5026a38:0x7ffff5026a38:0x7ffff5026a38:0x7ffff5026a38:" 	0
scalar barabasi_100nodes_network.node[3].proactive_component 	hdistance[3].proactive_component 	2.8742169034409
scalar barabasi_100nodes_network.node[3].proactive_component 	downloads[3].proactive_component 	401930
scalar barabasi_100nodes_network.node[3].proactive_component 	avg_time[3].proactive_component 	0
scalar barabasi_100nodes_network.node[4].core_layer 	interests[4] 	610719
scalar barabasi_100nodes_network.node[4].core_layer 	repo_load[4] 	162921
scalar barabasi_100nodes_network.node[4].core_layer 	data[4] 	315765
scalar barabasi_100nodes_network.node[4].core_layer 	slots_sent[face$o[1]->client[4]] 	104839453
scalar barabasi_100nodes_network.node[4].core_layer 	slots_sent[face$o[2]->node[2]] 	0
scalar barabasi_100nodes_network.node[4].core_layer 	slots_sent[face$o[3]->node[27]] 	57999175
scalar barabasi_100nodes_network.node[4].core_layer 	slots_sent[face$o[4]->node[30]] 	57782756
scalar barabasi_100nodes_network.node[4].core_layer 	slots_sent[face$o[5]->node[85]] 	30432956
scalar barabasi_100nodes_network.node[4].content_store 	p_hit[4] 	0.21619271710885
scalar barabasi_100nodes_network.node[4].content_store 	hits[4] 	132033
scalar barabasi_100nodes_network.node[4].content_store 	misses[4] 	478686
scalar barabasi_100nodes_network.node[4].content_store 	decision_yes[4] 	315765
scalar barabasi_100nodes_network.node[4].content_store 	decision_no[4] 	162921
scalar barabasi_100nodes_network.node[4].content_store 	decision_ratio[4] 	0.65964954061744
scalar barabasi_100nodes_network.node[4].content_store 	"representation_breakdown[4] 0x7ffff5026a38:0x7ffff5026a38:0x7ffff5026a38:0x7ffff5026a38:0x7ffff5026a38:" 	0
scalar barabasi_100nodes_network.node[4].proactive_component 	hdistance[4].proactive_component 	3.1219020956485
scalar barabasi_100nodes_network.node[4].proactive_component 	downloads[4].proactive_component 	794408
scalar barabasi_100nodes_network.node[4].proactive_component 	avg_time[4].proactive_component 	0
scalar barabasi_100nodes_network.node[5].core_layer 	interests[5] 	2047960
scalar barabasi_100nodes_network.node[5].core_layer 	data[5] 	1700850
scalar barabasi_100nodes_network.node[5].core_layer 	slots_sent[face$o[1]->client[5]] 	118592019
scalar barabasi_100nodes_network.node[5].core_layer 	slots_sent[face$o[2]->node[0]] 	537401557
scalar barabasi_100nodes_network.node[5].core_layer 	slots_sent[face$o[3]->node[9]] 	19706691
scalar barabasi_100nodes_network.node[5].core_layer 	slots_sent[face$o[4]->node[35]] 	57289140
scalar barabasi_100nodes_network.node[5].content_store 	p_hit[5] 	0.16949061505108
scalar barabasi_100nodes_network.node[5].content_store 	hits[5] 	347110
scalar barabasi_100nodes_network.node[5].content_store 	misses[5] 	1700850
scalar barabasi_100nodes_network.node[5].content_store 	decision_yes[5] 	1700850
scalar barabasi_100nodes_network.node[5].content_store 	decision_no[5] 	0
scalar barabasi_100nodes_network.node[5].content_store 	decision_ratio[5] 	1
scalar barabasi_100nodes_network.node[5].content_store 	"representation_breakdown[5] 0x7ffff5026a38:0x7ffff5026a38:0x7ffff5026a38:0x7ffff5026a38:0x7ffff5026a38:" 	0
scalar barabasi_100nodes_network.node[5].proactive_component 	hdistance[5].proactive_component 	2.0353517439141
scalar barabasi_100nodes_network.node[5].proactive_component 	downloads[5].proactive_component 	3208300
scalar barabasi_100nodes_network.node[5].proactive_component 	avg_time[5].proactive_component 	0
scalar barabasi_100nodes_network.node[6].core_layer 	interests[6] 	192519
scalar barabasi_100nodes_network.node[6].core_layer 	data[6] 	80656
scalar barabasi_100nodes_network.node[6].core_layer 	slots_sent[face$o[1]->client[6]] 	142204928
scalar barabasi_100nodes_network.node[6].core_layer 	slots_sent[face$o[2]->node[2]] 	0
scalar barabasi_100nodes_network.node[6].content_store 	p_hit[6] 	0.58104914320145
scalar barabasi_100nodes_network.node[6].content_store 	hits[6] 	111863
scalar barabasi_100nodes_network.node[6].content_store 	misses[6] 	80656
scalar barabasi_100nodes_network.node[6].content_store 	decision_yes[6] 	80656
scalar barabasi_100nodes_network.node[6].content_store 	decision_no[6] 	0
scalar barabasi_100nodes_network.node[6].content_store 	decision_ratio[6] 	1
scalar barabasi_100nodes_network.node[6].content_store 	"representation_breakdown[6] 0x7ffff5026a38:0x7ffff5026a38:0x7ffff5026a38:0x7ffff5026a38:0x7ffff5026a38:" 	0
scalar barabasi_100nodes_network.node[6].proactive_component 	hdistance[6].proactive_component 	2.8836036292421
scalar barabasi_100nodes_network.node[6].proactive_component 	downloads[6].proactive_component 	267053
scalar barabasi_100nodes_network.node[6].proactive_component 	avg_time[6].proactive_component 	0
scalar barabasi_100nodes_network.node[7].core_layer 	interests[7] 	1081817
scalar barabasi_100nodes_network.node[7].core_layer 	data[7] 	868211
scalar barabasi_100nodes_network.node[7].core_layer 	slots_sent[face$o[1]->client[7]] 	137467705
scalar barabasi_100nodes_network.node[7].core_layer 	slots_sent[face$o[2]->node[2]] 	0
scalar barabasi_100nodes_network.node[7].core_layer 	slots_sent[face$o[3]->node[23]] 	194119354
scalar barabasi_100nodes_network.node[7].core_layer 	slots_sent[face$o[4]->node[31]] 	90819632
scalar barabasi_100nodes_network.node[7].core_layer 	slots_sent[face$o[5]->node[49]] 	34360856
scalar barabasi_100nodes_network.node[7].core_layer 	slots_sent[face$o[6]->node[90]] 	23388921
scalar barabasi_100nodes_network.node[7].content_store 	p_hit[7] 	0.19745114007267
scalar barabasi_100nodes_network.node[7].content_store 	hits[7] 	213606
scalar barabasi_100nodes_network.node[7].content_store 	misses[7] 	868211
scalar barabasi_100nodes_network.node[7].content_store 	decision_yes[7] 	868211
scalar barabasi_100nodes_network.node[7].content_store 	decision_no[7] 	0
scalar barabasi_100nodes_network.node[7].content_store 	decision_ratio[7] 	1
scalar barabasi_100nodes_network.node[7].content_store 	"representation_breakdown[7] 0x7ffff5026a38:0x7ffff5026a38:0x7ffff5026a38:0x7ffff5026a38:0x7ffff5026a38:" 	0
scalar barabasi_100nodes_network.node[7].proactive_component 	hdistance[7].proactive_component 	2.8157504803082
scalar barabasi_100nodes_network.node[7].proactive_component 	downloads[7].proactive_component 	1488107
scalar barabasi_100nodes_network.node[7].proactive_component 	avg_time[7].proactive_component 	0
scalar barabasi_100nodes_network.node[8].core_layer 	interests[8] 	2003683
scalar barabasi_100nodes_network.node[8].core_layer 	data[8] 	1601020
scalar barabasi_100nodes_network.node[8].core_layer 	slots_sent[face$o[1]->client[8]] 	130304766
scalar barabasi_100nodes_network.node[8].core_layer 	slots_sent[face$o[2]->node[2]] 	411900857
scalar barabasi_100nodes_network.node[8].core_layer 	slots_sent[face$o[3]->node[12]] 	23538742
scalar barabasi_100nodes_network.node[8].core_layer 	slots_sent[face$o[4]->node[14]] 	33213835
scalar barabasi_100nodes_network.node[8].core_layer 	slots_sent[face$o[5]->node[17]] 	33340890
scalar barabasi_100nodes_network.node[8].core_layer 	slots_sent[face$o[6]->node[39]] 	55297763
scalar barabasi_100nodes_network.node[8].core_layer 	slots_sent[face$o[7]->node[61]] 	33106832
scalar barabasi_100nodes_network.node[8].core_layer 	slots_sent[face$o[8]->node[66]] 	33302427
scalar barabasi_100nodes_network.node[8].content_store 	p_hit[8] 	0.20096142952753
scalar barabasi_100nodes_network.node[8].content_store 	hits[8] 	402663
scalar barabasi_100nodes_network.node[8].content_store 	misses[8] 	1601020
scalar barabasi_100nodes_network.node[8].content_store 	decision_yes[8] 	1601020
scalar barabasi_100nodes_network.node[8].content_store 	decision_no[8] 	0
scalar barabasi_100nodes_network.node[8].content_store 	decision_ratio[8] 	1
scalar barabasi_100nodes_network.node[8].content_store 	"representation_breakdown[8] 0x7ffff5026a38:0x7ffff5026a38:0x7ffff5026a38:0x7ffff5026a38:0x7ffff5026a38:" 	0
scalar barabasi_100nodes_network.node[8].proactive_component 	hdistance[8].proactive_component 	2.1496489717157
scalar barabasi_100nodes_network.node[8].proactive_component 	downloads[8].proactive_component 	3677339
scalar barabasi_100nodes_network.node[8].proactive_component 	avg_time[8].proactive_component 	0
scalar barabasi_100nodes_network.node[9].core_layer 	interests[9] 	1638646
scalar barabasi_100nodes_network.node[9].core_layer 	repo_load[9] 	1492911
scalar barabasi_100nodes_network.node[9].core_layer 	data[9] 	57183
scalar barabasi_100nodes_network.node[9].core_layer 	slots_sent[face$o[1]->client[9]] 	109404699
scalar barabasi_100nodes_network.node[9].core_layer 	slots_sent[face$o[2]->node[5]] 	458505975
scalar barabasi_100nodes_network.node[9].content_store 	p_hit[9] 	0.05403973768587
scalar barabasi_100nodes_network.node[9].content_store 	hits[9] 	88552
scalar barabasi_100nodes_network.node[9].content_store 	misses[9] 	1550094
scalar barabasi_100nodes_network.node[9].content_store 	decision_yes[9] 	57183
scalar barabasi_100nodes_network.node[9].content_store 	decision_no[9] 	1492911
scalar barabasi_100nodes_network.node[9].content_store 	decision_ratio[9] 	0.036890020863251
scalar barabasi_100nodes_network.node[9].content_store 	"representation_breakdown[9] 0x7ffff5026a38:0x7ffff5026a38:0x7ffff5026a38:0x7ffff5026a38:0x7ffff5026a38:" 	0
scalar barabasi_100nodes_network.node[9].proactive_component 	hdistance[9].proactive_component 	3.2941701737124
scalar barabasi_100nodes_network.node[9].proactive_component 	downloads[9].proactive_component 	241894
scalar barabasi_100nodes_network.node[9].proactive_component 	avg_time[9].proactive_component 	0
scalar barabasi_100nodes_network.node[10].core_layer 	interests[10] 	282123
scalar barabasi_100nodes_network.node[10].core_layer 	data[10] 	156815
scalar barabasi_100nodes_network.node[10].core_layer 	slots_sent[face$o[1]->client[10]] 	136560675
scalar barabasi_100nodes_network.node[10].core_layer 	slots_sent[face$o[2]->node[0]] 	0
scalar barabasi_100nodes_network.node[10].core_layer 	slots_sent[face$o[3]->node[71]] 	30331103
scalar barabasi_100nodes_network.node[10].content_store 	p_hit[10] 	0.44416088018347
scalar barabasi_100nodes_network.node[10].content_store 	hits[10] 	125308
scalar barabasi_100nodes_network.node[10].content_store 	misses[10] 	156815
scalar barabasi_100nodes_network.node[10].content_store 	decision_yes[10] 	156815
scalar barabasi_100nodes_network.node[10].content_store 	decision_no[10] 	0
scalar barabasi_100nodes_network.node[10].content_store 	decision_ratio[10] 	1
scalar barabasi_100nodes_network.node[10].content_store 	"representation_breakdown[10] 0x7ffff5026a38:0x7ffff5026a38:0x7ffff5026a38:0x7ffff5026a38:0x7ffff5026a38:" 	0
scalar barabasi_100nodes_network.node[10].proactive_component 	hdistance[10].proactive_component 	2.4925641880627
scalar barabasi_100nodes_network.node[10].proactive_component 	downloads[10].proactive_component 	479840
scalar barabasi_100nodes_network.node[10].proactive_component 	avg_time[10].proactive_component 	0
scalar barabasi_100nodes_network.node[11].core_layer 	interests[11] 	195540
scalar barabasi_100nodes_network.node[11].core_layer 	data[11] 	81516
scalar barabasi_100nodes_network.node[11].core_layer 	slots_sent[face$o[1]->client[11]] 	138533708
scalar barabasi_100nodes_network.node[11].core_layer 	slots_sent[face$o[2]->node[0]] 	0
scalar barabasi_100nodes_network.node[11].content_store 	p_hit[11] 	0.58312365756367
scalar barabasi_100nodes_network.node[11].content_store 	hits[11] 	114024
scalar barabasi_100nodes_network.node[11].content_store 	misses[11] 	81516
scalar barabasi_100nodes_network.node[11].content_store 	decision_yes[11] 	81516
scalar barabasi_100nodes_network.node[11].content_store 	decision_no[11] 	0
scalar barabasi_100nodes_network.node[11].content_store 	decision_ratio[11] 	1
scalar barabasi_100nodes_network.node[11].content_store 	"representation_breakdown[11] 0x7ffff5026a38:0x7ffff5026a38:0x7ffff5026a38:0x7ffff5026a38:0x7ffff5026a38:" 	0
scalar barabasi_100nodes_network.node[11].proactive_component 	hdistance[11].proactive_component 	2.5087314209797
scalar barabasi_100nodes_network.node[11].proactive_component 	downloads[11].proactive_component 	313122
scalar barabasi_100nodes_network.node[11].proactive_component 	avg_time[11].proactive_component 	0
scalar barabasi_100nodes_network.node[12].core_layer 	interests[12] 	1344359
scalar barabasi_100nodes_network.node[12].core_layer 	repo_load[12] 	1195936
scalar barabasi_100nodes_network.node[12].core_layer 	data[12] 	57291
scalar barabasi_100nodes_network.node[12].core_layer 	slots_sent[face$o[1]->client[12]] 	117268185
scalar barabasi_100nodes_network.node[12].core_layer 	slots_sent[face$o[2]->node[8]] 	356344594
scalar barabasi_100nodes_network.node[12].content_store 	p_hit[12] 	0.067788440438901
scalar barabasi_100nodes_network.node[12].content_store 	hits[12] 	91132
scalar barabasi_100nodes_network.node[12].content_store 	misses[12] 	1253227
scalar barabasi_100nodes_network.node[12].content_store 	decision_yes[12] 	57291
scalar barabasi_100nodes_network.node[12].content_store 	decision_no[12] 	1195936
scalar barabasi_100nodes_network.node[12].content_store 	decision_ratio[12] 	0.045714782716938
scalar barabasi_100nodes_network.node[12].content_store 	"representation_breakdown[12] 0x7ffff5026a38:0x7ffff5026a38:0x7ffff5026a38:0x7ffff5026a38:0x7ffff5026a38:" 	0
scalar barabasi_100nodes_network.node[12].proactive_component 	hdistance[12].proactive_component 	3.6600294098606
scalar barabasi_100nodes_network.node[12].proactive_component 	downloads[12].proactive_component 	216254
scalar barabasi_100nodes_network.node[12].proactive_component 	avg_time[12].proactive_component 	0
scalar barabasi_100nodes_network.node[13].core_layer 	interests[13] 	500113
scalar barabasi_100nodes_network.node[13].core_layer 	data[13] 	352649
scalar barabasi_100nodes_network.node[13].core_layer 	slots_sent[face$o[1]->client[13]] 	139952863
scalar barabasi_100nodes_network.node[13].core_layer 	slots_sent[face$o[2]->node[2]] 	0
scalar barabasi_100nodes_network.node[13].core_layer 	slots_sent[face$o[3]->node[67]] 	34331640
scalar barabasi_100nodes_network.node[13].core_layer 	slots_sent[face$o[4]->node[78]] 	85822524
scalar barabasi_100nodes_network.node[13].content_store 	p_hit[13] 	0.29486136133234
scalar barabasi_100nodes_network.node[13].content_store 	hits[13] 	147464
scalar barabasi_100nodes_network.node[13].content_store 	misses[13] 	352649
scalar barabasi_100nodes_network.node[13].content_store 	decision_yes[13] 	352649
scalar barabasi_100nodes_network.node[13].content_store 	decision_no[13] 	0
scalar barabasi_100nodes_network.node[13].content_store 	decision_ratio[13] 	1
scalar barabasi_100nodes_network.node[13].content_store 	"representation_breakdown[13] 0x7ffff5026a38:0x7ffff5026a38:0x7ffff5026a38:0x7ffff5026a38:0x7ffff5026a38:" 	0
scalar barabasi_100nodes_network.node[13].proactive_component 	hdistance[13].proactive_component 	2.85255534706
scalar barabasi_100nodes_network.node[13].proactive_component 	downloads[13].proactive_component 	705051
scalar barabasi_100nodes_network.node[13].proactive_component 	avg_time[13].proactive_component 	0
scalar barabasi_100nodes_network.node[14].core_layer 	interests[14] 	193609
scalar barabasi_100nodes_network.node[14].core_layer 	data[14] 	80481
scalar barabasi_100nodes_network.node[14].core_layer 	slots_sent[face$o[1]->client[14]] 	144094125
scalar barabasi_100nodes_network.node[14].core_layer 	slots_sent[face$o[2]->node[8]] 	0
scalar barabasi_100nodes_network.node[14].content_store 	p_hit[14] 	0.58431167972563
scalar barabasi_100nodes_network.node[14].content_store 	hits[14] 	113128
scalar barabasi_100nodes_network.node[14].content_store 	misses[14] 	80481
scalar barabasi_100nodes_network.node[14].content_store 	decision_yes[14] 	80481
scalar barabasi_100nodes_network.node[14].content_store 	decision_no[14] 	0
scalar barabasi_100nodes_network.node[14].content_store 	decision_ratio[14] 	1
scalar barabasi_100nodes_network.node[14].content_store 	"representation_breakdown[14] 0x7ffff5026a38:0x7ffff5026a38:0x7ffff5026a38:0x7ffff5026a38:0x7ffff5026a38:" 	0
scalar barabasi_100nodes_network.node[14].proactive_component 	hdistance[14].proactive_component 	3.1616312933055
scalar barabasi_100nodes_network.node[14].proactive_component 	downloads[14].proactive_component 	274359
scalar barabasi_100nodes_network.node[14].proactive_component 	avg_time[14].proactive_component 	0
scalar barabasi_100nodes_network.node[15].core_layer 	interests[15] 	371609
scalar barabasi_100nodes_network.node[15].core_layer 	data[15] 	231152
scalar barabasi_100nodes_network.node[15].core_layer 	slots_sent[face$o[1]->client[15]] 	135838457
scalar barabasi_100nodes_network.node[15].core_layer 	slots_sent[face$o[2]->node[0]] 	0
scalar barabasi_100nodes_network.node[15].core_layer 	slots_sent[face$o[3]->node[40]] 	31221484
scalar barabasi_100nodes_network.node[15].core_layer 	slots_sent[face$o[4]->node[56]] 	31148570
scalar barabasi_100nodes_network.node[15].content_store 	p_hit[15] 	0.37796985541254
scalar barabasi_100nodes_network.node[15].content_store 	hits[15] 	140457
scalar barabasi_100nodes_network.node[15].content_store 	misses[15] 	231152
scalar barabasi_100nodes_network.node[15].content_store 	decision_yes[15] 	231152
scalar barabasi_100nodes_network.node[15].content_store 	decision_no[15] 	0
scalar barabasi_100nodes_network.node[15].content_store 	decision_ratio[15] 	1
scalar barabasi_100nodes_network.node[15].content_store 	"representation_breakdown[15] 0x7ffff5026a38:0x7ffff5026a38:0x7ffff5026a38:0x7ffff5026a38:0x7ffff5026a38:" 	0
scalar barabasi_100nodes_network.node[15].proactive_component 	hdistance[15].proactive_component 	2.5083711511283
scalar barabasi_100nodes_network.node[15].proactive_component 	downloads[15].proactive_component 	670099
scalar barabasi_100nodes_network.node[15].proactive_component 	avg_time[15].proactive_component 	0
scalar barabasi_100nodes_network.node[16].core_layer 	interests[16] 	671060
scalar barabasi_100nodes_network.node[16].core_layer 	data[16] 	515226
scalar barabasi_100nodes_network.node[16].core_layer 	slots_sent[face$o[1]->client[16]] 	138624583
scalar barabasi_100nodes_network.node[16].core_layer 	slots_sent[face$o[2]->node[2]] 	0
scalar barabasi_100nodes_network.node[16].core_layer 	slots_sent[face$o[3]->node[19]] 	151079417
scalar barabasi_100nodes_network.node[16].core_layer 	slots_sent[face$o[4]->node[20]] 	34394446
scalar barabasi_100nodes_network.node[16].content_store 	p_hit[16] 	0.2322206658123
scalar barabasi_100nodes_network.node[16].content_store 	hits[16] 	155834
scalar barabasi_100nodes_network.node[16].content_store 	misses[16] 	515226
scalar barabasi_100nodes_network.node[16].content_store 	decision_yes[16] 	515226
scalar barabasi_100nodes_network.node[16].content_store 	decision_no[16] 	0
scalar barabasi_100nodes_network.node[16].content_store 	decision_ratio[16] 	1
scalar barabasi_100nodes_network.node[16].content_store 	"representation_breakdown[16] 0x7ffff5026a38:0x7ffff5026a38:0x7ffff5026a38:0x7ffff5026a38:0x7ffff5026a38:" 	0
scalar barabasi_100nodes_network.node[16].proactive_component 	hdistance[16].proactive_component 	2.7938676645846
scalar barabasi_100nodes_network.node[16].proactive_component 	downloads[16].proactive_component 	814763
scalar barabasi_100nodes_network.node[16].proactive_component 	avg_time[16].proactive_component 	0
scalar barabasi_100nodes_network.node[17].core_layer 	interests[17] 	193628
scalar barabasi_100nodes_network.node[17].core_layer 	data[17] 	80423
scalar barabasi_100nodes_network.node[17].core_layer 	slots_sent[face$o[1]->client[17]] 	144111067
scalar barabasi_100nodes_network.node[17].core_layer 	slots_sent[face$o[2]->node[8]] 	0
scalar barabasi_100nodes_network.node[17].content_store 	p_hit[17] 	0.5846520131386
scalar barabasi_100nodes_network.node[17].content_store 	hits[17] 	113205
scalar barabasi_100nodes_network.node[17].content_store 	misses[17] 	80423
scalar barabasi_100nodes_network.node[17].content_store 	decision_yes[17] 	80423
scalar barabasi_100nodes_network.node[17].content_store 	decision_no[17] 	0
scalar barabasi_100nodes_network.node[17].content_store 	decision_ratio[17] 	1
scalar barabasi_100nodes_network.node[17].content_store 	"representation_breakdown[17] 0x7ffff5026a38:0x7ffff5026a38:0x7ffff5026a38:0x7ffff5026a38:0x7ffff5026a38:" 	0
scalar barabasi_100nodes_network.node[17].proactive_component 	hdistance[17].proactive_component 	3.161770379159
scalar barabasi_100nodes_network.node[17].proactive_component 	downloads[17].proactive_component 	274766
scalar barabasi_100nodes_network.node[17].proactive_component 	avg_time[17].proactive_component 	0
scalar barabasi_100nodes_network.node[18].core_layer 	interests[18] 	2055498
scalar barabasi_100nodes_network.node[18].core_layer 	data[18] 	1633083
scalar barabasi_100nodes_network.node[18].core_layer 	slots_sent[face$o[1]->client[18]] 	129045784
scalar barabasi_100nodes_network.node[18].core_layer 	slots_sent[face$o[2]->node[2]] 	551154378
scalar barabasi_100nodes_network.node[18].core_layer 	slots_sent[face$o[3]->node[53]] 	33203091
scalar barabasi_100nodes_network.node[18].core_layer 	slots_sent[face$o[4]->node[68]] 	33289262
scalar barabasi_100nodes_network.node[18].core_layer 	slots_sent[face$o[5]->node[72]] 	22316119
scalar barabasi_100nodes_network.node[18].content_store 	p_hit[18] 	0.2055049433276
scalar barabasi_100nodes_network.node[18].content_store 	hits[18] 	422415
scalar barabasi_100nodes_network.node[18].content_store 	misses[18] 	1633083
scalar barabasi_100nodes_network.node[18].content_store 	decision_yes[18] 	1633083
scalar barabasi_100nodes_network.node[18].content_store 	decision_no[18] 	0
scalar barabasi_100nodes_network.node[18].content_store 	decision_ratio[18] 	1
scalar barabasi_100nodes_network.node[18].content_store 	"representation_breakdown[18] 0x7ffff5026a38:0x7ffff5026a38:0x7ffff5026a38:0x7ffff5026a38:0x7ffff5026a38:" 	0
scalar barabasi_100nodes_network.node[18].proactive_component 	hdistance[18].proactive_component 	2.0625841511293
scalar barabasi_100nodes_network.node[18].proactive_component 	downloads[18].proactive_component 	3849473
scalar barabasi_100nodes_network.node[18].proactive_component 	avg_time[18].proactive_component 	0
scalar barabasi_100nodes_network.node[19].core_layer 	interests[19] 	540255
scalar barabasi_100nodes_network.node[19].core_layer 	data[19] 	372074
scalar barabasi_100nodes_network.node[19].core_layer 	slots_sent[face$o[1]->client[19]] 	141725148
scalar barabasi_100nodes_network.node[19].core_layer 	slots_sent[face$o[2]->node[16]] 	0
scalar barabasi_100nodes_network.node[19].core_layer 	slots_sent[face$o[3]->node[63]] 	34506270
scalar barabasi_100nodes_network.node[19].core_layer 	slots_sent[face$o[4]->node[70]] 	34634824
scalar barabasi_100nodes_network.node[19].core_layer 	slots_sent[face$o[5]->node[80]] 	34743047
scalar barabasi_100nodes_network.node[19].core_layer 	slots_sent[face$o[6]->node[89]] 	34865189
scalar barabasi_100nodes_network.node[19].content_store 	p_hit[19] 	0.31129929385198
scalar barabasi_100nodes_network.node[19].content_store 	hits[19] 	168181
scalar barabasi_100nodes_network.node[19].content_store 	misses[19] 	372074
scalar barabasi_100nodes_network.node[19].content_store 	decision_yes[19] 	372074
scalar barabasi_100nodes_network.node[19].content_store 	decision_no[19] 	0
scalar barabasi_100nodes_network.node[19].content_store 	decision_ratio[19] 	1
scalar barabasi_100nodes_network.node[19].content_store 	"representation_breakdown[19] 0x7ffff5026a38:0x7ffff5026a38:0x7ffff5026a38:0x7ffff5026a38:0x7ffff5026a38:" 	0
scalar barabasi_100nodes_network.node[19].proactive_component 	hdistance[19].proactive_component 	3.3280791333146
scalar barabasi_100nodes_network.node[19].proactive_component 	downloads[19].proactive_component 	892873
scalar barabasi_100nodes_network.node[19].proactive_component 	avg_time[19].proactive_component 	0
scalar barabasi_100nodes_network.node[20].core_layer 	interests[20] 	192950
scalar barabasi_100nodes_network.node[20].core_layer 	data[20] 	79822
scalar barabasi_100nodes_network.node[20].core_layer 	slots_sent[face$o[1]->client[20]] 	146783640
scalar barabasi_100nodes_network.node[20].core_layer 	slots_sent[face$o[2]->node[16]] 	0
scalar barabasi_100nodes_network.node[20].content_store 	p_hit[20] 	0.58630733350609
scalar barabasi_100nodes_network.node[20].content_store 	hits[20] 	113128
scalar barabasi_100nodes_network.node[20].content_store 	misses[20] 	79822
scalar barabasi_100nodes_network.node[20].content_store 	decision_yes[20] 	79822
scalar barabasi_100nodes_network.node[20].content_store 	decision_no[20] 	0
scalar barabasi_100nodes_network.node[20].content_store 	decision_ratio[20] 	1
scalar barabasi_100nodes_network.node[20].content_store 	"representation_breakdown[20] 0x7ffff5026a38:0x7ffff5026a38:0x7ffff5026a38:0x7ffff5026a38:0x7ffff5026a38:" 	0
scalar barabasi_100nodes_network.node[20].proactive_component 	hdistance[20].proactive_component 	3.2086231700762
scalar barabasi_100nodes_network.node[20].proactive_component 	downloads[20].proactive_component 	253016
scalar barabasi_100nodes_network.node[20].proactive_component 	avg_time[20].proactive_component 	0
scalar barabasi_100nodes_network.node[21].core_layer 	interests[21] 	346602
scalar barabasi_100nodes_network.node[21].core_layer 	data[21] 	211695
scalar barabasi_100nodes_network.node[21].core_layer 	slots_sent[face$o[1]->client[21]] 	135495872
scalar barabasi_100nodes_network.node[21].core_layer 	slots_sent[face$o[2]->node[0]] 	0
scalar barabasi_100nodes_network.node[21].core_layer 	slots_sent[face$o[3]->node[24]] 	31312486
scalar barabasi_100nodes_network.node[21].core_layer 	slots_sent[face$o[4]->node[57]] 	21820369
scalar barabasi_100nodes_network.node[21].content_store 	p_hit[21] 	0.38922741357522
scalar barabasi_100nodes_network.node[21].content_store 	hits[21] 	134907
scalar barabasi_100nodes_network.node[21].content_store 	misses[21] 	211695
scalar barabasi_100nodes_network.node[21].content_store 	decision_yes[21] 	211695
scalar barabasi_100nodes_network.node[21].content_store 	decision_no[21] 	0
scalar barabasi_100nodes_network.node[21].content_store 	decision_ratio[21] 	1
scalar barabasi_100nodes_network.node[21].content_store 	"representation_breakdown[21] 0x7ffff5026a38:0x7ffff5026a38:0x7ffff5026a38:0x7ffff5026a38:0x7ffff5026a38:" 	0
scalar barabasi_100nodes_network.node[21].proactive_component 	hdistance[21].proactive_component 	2.5289467739497
scalar barabasi_100nodes_network.node[21].proactive_component 	downloads[21].proactive_component 	615319
scalar barabasi_100nodes_network.node[21].proactive_component 	avg_time[21].proactive_component 	0
scalar barabasi_100nodes_network.node[22].core_layer 	interests[22] 	195685
scalar barabasi_100nodes_network.node[22].core_layer 	data[22] 	81748
scalar barabasi_100nodes_network.node[22].core_layer 	slots_sent[face$o[1]->client[22]] 	138672363
scalar barabasi_100nodes_network.node[22].core_layer 	slots_sent[face$o[2]->node[0]] 	0
scalar barabasi_100nodes_network.node[22].content_store 	p_hit[22] 	0.58224697856249
scalar barabasi_100nodes_network.node[22].content_store 	hits[22] 	113937
scalar barabasi_100nodes_network.node[22].content_store 	misses[22] 	81748
scalar barabasi_100nodes_network.node[22].content_store 	decision_yes[22] 	81748
scalar barabasi_100nodes_network.node[22].content_store 	decision_no[22] 	0
scalar barabasi_100nodes_network.node[22].content_store 	decision_ratio[22] 	1
scalar barabasi_100nodes_network.node[22].content_store 	"representation_breakdown[22] 0x7ffff5026a38:0x7ffff5026a38:0x7ffff5026a38:0x7ffff5026a38:0x7ffff5026a38:" 	0
scalar barabasi_100nodes_network.node[22].proactive_component 	hdistance[22].proactive_component 	2.5119781783682
scalar barabasi_100nodes_network.node[22].proactive_component 	downloads[22].proactive_component 	311984
scalar barabasi_100nodes_network.node[22].proactive_component 	avg_time[22].proactive_component 	0
scalar barabasi_100nodes_network.node[23].core_layer 	interests[23] 	659751
scalar barabasi_100nodes_network.node[23].core_layer 	data[23] 	474948
scalar barabasi_100nodes_network.node[23].core_layer 	slots_sent[face$o[1]->client[23]] 	141911354
scalar barabasi_100nodes_network.node[23].core_layer 	slots_sent[face$o[2]->node[7]] 	0
scalar barabasi_100nodes_network.node[23].core_layer 	slots_sent[face$o[3]->node[46]] 	47273568
scalar barabasi_100nodes_network.node[23].core_layer 	slots_sent[face$o[4]->node[47]] 	35000415
scalar barabasi_100nodes_network.node[23].core_layer 	slots_sent[face$o[5]->node[51]] 	34798719
scalar barabasi_100nodes_network.node[23].core_layer 	slots_sent[face$o[6]->node[83]] 	35107219
scalar barabasi_100nodes_network.node[23].core_layer 	slots_sent[face$o[7]->node[86]] 	34874046
scalar barabasi_100nodes_network.node[23].content_store 	p_hit[23] 	0.28011022340247
scalar barabasi_100nodes_network.node[23].content_store 	hits[23] 	184803
scalar barabasi_100nodes_network.node[23].content_store 	misses[23] 	474948
scalar barabasi_100nodes_network.node[23].content_store 	decision_yes[23] 	474948
scalar barabasi_100nodes_network.node[23].content_store 	decision_no[23] 	0
scalar barabasi_100nodes_network.node[23].content_store 	decision_ratio[23] 	1
scalar barabasi_100nodes_network.node[23].content_store 	"representation_breakdown[23] 0x7ffff5026a38:0x7ffff5026a38:0x7ffff5026a38:0x7ffff5026a38:0x7ffff5026a38:" 	0
scalar barabasi_100nodes_network.node[23].proactive_component 	hdistance[23].proactive_component 	3.2925408117638
scalar barabasi_100nodes_network.node[23].proactive_component 	downloads[23].proactive_component 	1091352
scalar barabasi_100nodes_network.node[23].proactive_component 	avg_time[23].proactive_component 	0
scalar barabasi_100nodes_network.node[24].core_layer 	interests[24] 	194018
scalar barabasi_100nodes_network.node[24].core_layer 	data[24] 	79723
scalar barabasi_100nodes_network.node[24].core_layer 	slots_sent[face$o[1]->client[24]] 	143688829
scalar barabasi_100nodes_network.node[24].core_layer 	slots_sent[face$o[2]->node[21]] 	0
scalar barabasi_100nodes_network.node[24].content_store 	p_hit[24] 	0.58909482625323
scalar barabasi_100nodes_network.node[24].content_store 	hits[24] 	114295
scalar barabasi_100nodes_network.node[24].content_store 	misses[24] 	79723
scalar barabasi_100nodes_network.node[24].content_store 	decision_yes[24] 	79723
scalar barabasi_100nodes_network.node[24].content_store 	decision_no[24] 	0
scalar barabasi_100nodes_network.node[24].content_store 	decision_ratio[24] 	1
scalar barabasi_100nodes_network.node[24].content_store 	"representation_breakdown[24] 0x7ffff5026a38:0x7ffff5026a38:0x7ffff5026a38:0x7ffff5026a38:0x7ffff5026a38:" 	0
scalar barabasi_100nodes_network.node[24].proactive_component 	hdistance[24].proactive_component 	2.7137983045808
scalar barabasi_100nodes_network.node[24].proactive_component 	downloads[24].proactive_component 	275802
scalar barabasi_100nodes_network.node[24].proactive_component 	avg_time[24].proactive_component 	0
scalar barabasi_100nodes_network.node[25].core_layer 	interests[25] 	279198
scalar barabasi_100nodes_network.node[25].core_layer 	data[25] 	155698
scalar barabasi_100nodes_network.node[25].core_layer 	slots_sent[face$o[1]->client[25]] 	142093063
scalar barabasi_100nodes_network.node[25].core_layer 	slots_sent[face$o[2]->node[2]] 	0
scalar barabasi_100nodes_network.node[25].core_layer 	slots_sent[face$o[3]->node[38]] 	33523578
scalar barabasi_100nodes_network.node[25].content_store 	p_hit[25] 	0.44233841216628
scalar barabasi_100nodes_network.node[25].content_store 	hits[25] 	123500
scalar barabasi_100nodes_network.node[25].content_store 	misses[25] 	155698
scalar barabasi_100nodes_network.node[25].content_store 	decision_yes[25] 	155698
scalar barabasi_100nodes_network.node[25].content_store 	decision_no[25] 	0
scalar barabasi_100nodes_network.node[25].content_store 	decision_ratio[25] 	1
scalar barabasi_100nodes_network.node[25].content_store 	"representation_breakdown[25] 0x7ffff5026a38:0x7ffff5026a38:0x7ffff5026a38:0x7ffff5026a38:0x7ffff5026a38:" 	0
scalar barabasi_100nodes_network.node[25].proactive_component 	hdistance[25].proactive_component 	2.8732647866036
scalar barabasi_100nodes_network.node[25].proactive_component 	downloads[25].proactive_component 	402256
scalar barabasi_100nodes_network.node[25].proactive_component 	avg_time[25].proactive_component 	0
scalar barabasi_100nodes_network.node[26].core_layer 	interests[26] 	397941
scalar barabasi_100nodes_network.node[26].core_layer 	data[26] 	261186
scalar barabasi_100nodes_network.node[26].core_layer 	slots_sent[face$o[1]->client[26]] 	140510184
scalar barabasi_100nodes_network.node[26].core_layer 	slots_sent[face$o[2]->node[2]] 	0
scalar barabasi_100nodes_network.node[26].core_layer 	slots_sent[face$o[3]->node[77]] 	44302547
scalar barabasi_100nodes_network.node[26].core_layer 	slots_sent[face$o[4]->node[91]] 	34230466
scalar barabasi_100nodes_network.node[26].content_store 	p_hit[26] 	0.34365647168801
scalar barabasi_100nodes_network.node[26].content_store 	hits[26] 	136755
scalar barabasi_100nodes_network.node[26].content_store 	misses[26] 	261186
scalar barabasi_100nodes_network.node[26].content_store 	decision_yes[26] 	261186
scalar barabasi_100nodes_network.node[26].content_store 	decision_no[26] 	0
scalar barabasi_100nodes_network.node[26].content_store 	decision_ratio[26] 	1
scalar barabasi_100nodes_network.node[26].content_store 	"representation_breakdown[26] 0x7ffff5026a38:0x7ffff5026a38:0x7ffff5026a38:0x7ffff5026a38:0x7ffff5026a38:" 	0
scalar barabasi_100nodes_network.node[26].proactive_component 	hdistance[26].proactive_component 	2.8513737811594
scalar barabasi_100nodes_network.node[26].proactive_component 	downloads[26].proactive_component 	591033
scalar barabasi_100nodes_network.node[26].proactive_component 	avg_time[26].proactive_component 	0
scalar barabasi_100nodes_network.node[27].core_layer 	interests[27] 	282126
scalar barabasi_100nodes_network.node[27].core_layer 	data[27] 	156322
scalar barabasi_100nodes_network.node[27].core_layer 	slots_sent[face$o[1]->client[27]] 	138913568
scalar barabasi_100nodes_network.node[27].core_layer 	slots_sent[face$o[2]->node[4]] 	0
scalar barabasi_100nodes_network.node[27].core_layer 	slots_sent[face$o[3]->node[99]] 	31140114
scalar barabasi_100nodes_network.node[27].content_store 	p_hit[27] 	0.44591423690124
scalar barabasi_100nodes_network.node[27].content_store 	hits[27] 	125804
scalar barabasi_100nodes_network.node[27].content_store 	misses[27] 	156322
scalar barabasi_100nodes_network.node[27].content_store 	decision_yes[27] 	156322
scalar barabasi_100nodes_network.node[27].content_store 	decision_no[27] 	0
scalar barabasi_100nodes_network.node[27].content_store 	decision_ratio[27] 	1
scalar barabasi_100nodes_network.node[27].content_store 	"representation_breakdown[27] 0x7ffff5026a38:0x7ffff5026a38:0x7ffff5026a38:0x7ffff5026a38:0x7ffff5026a38:" 	0
scalar barabasi_100nodes_network.node[27].proactive_component 	hdistance[27].proactive_component 	2.6875706023464
scalar barabasi_100nodes_network.node[27].proactive_component 	downloads[27].proactive_component 	472718
scalar barabasi_100nodes_network.node[27].proactive_component 	avg_time[27].proactive_component 	0
scalar barabasi_100nodes_network.node[28].core_layer 	interests[28] 	194543
scalar barabasi_100nodes_network.node[28].core_layer 	data[28] 	81011
scalar barabasi_100nodes_network.node[28].core_layer 	slots_sent[face$o[1]->client[28]] 	138063910
scalar barabasi_100nodes_network.node[28].core_layer 	slots_sent[face$o[2]->node[0]] 	0
scalar barabasi_100nodes_network.node[28].content_store 	p_hit[28] 	0.58358306389847
scalar barabasi_100nodes_network.node[28].content_store 	hits[28] 	113532
scalar barabasi_100nodes_network.node[28].content_store 	misses[28] 	81011
scalar barabasi_100nodes_network.node[28].content_store 	decision_yes[28] 	81011
scalar barabasi_100nodes_network.node[28].content_store 	decision_no[28] 	0
scalar barabasi_100nodes_network.node[28].content_store 	decision_ratio[28] 	1
scalar barabasi_100nodes_network.node[28].content_store 	"representation_breakdown[28] 0x7ffff5026a38:0x7ffff5026a38:0x7ffff5026a38:0x7ffff5026a38:0x7ffff5026a38:" 	0
scalar barabasi_100nodes_network.node[28].proactive_component 	hdistance[28].proactive_component 	2.5107133951008
scalar barabasi_100nodes_network.node[28].proactive_component 	downloads[28].proactive_component 	312786
scalar barabasi_100nodes_network.node[28].proactive_component 	avg_time[28].proactive_component 	0
scalar barabasi_100nodes_network.node[29].core_layer 	interests[29] 	193012
scalar barabasi_100nodes_network.node[29].core_layer 	data[29] 	80617
scalar barabasi_100nodes_network.node[29].core_layer 	slots_sent[face$o[1]->client[29]] 	142979972
scalar barabasi_100nodes_network.node[29].core_layer 	slots_sent[face$o[2]->node[2]] 	0
scalar barabasi_100nodes_network.node[29].content_store 	p_hit[29] 	0.58232130644727
scalar barabasi_100nodes_network.node[29].content_store 	hits[29] 	112395
scalar barabasi_100nodes_network.node[29].content_store 	misses[29] 	80617
scalar barabasi_100nodes_network.node[29].content_store 	decision_yes[29] 	80617
scalar barabasi_100nodes_network.node[29].content_store 	decision_no[29] 	0
scalar barabasi_100nodes_network.node[29].content_store 	decision_ratio[29] 	1
scalar barabasi_100nodes_network.node[29].content_store 	"representation_breakdown[29] 0x7ffff5026a38:0x7ffff5026a38:0x7ffff5026a38:0x7ffff5026a38:0x7ffff5026a38:" 	0
scalar barabasi_100nodes_network.node[29].proactive_component 	hdistance[29].proactive_component 	2.8824647031323
scalar barabasi_100nodes_network.node[29].proactive_component 	downloads[29].proactive_component 	267375
scalar barabasi_100nodes_network.node[29].proactive_component 	avg_time[29].proactive_component 	0
scalar barabasi_100nodes_network.node[30].core_layer 	interests[30] 	281512
scalar barabasi_100nodes_network.node[30].core_layer 	data[30] 	156223
scalar barabasi_100nodes_network.node[30].core_layer 	slots_sent[face$o[1]->client[30]] 	138845556
scalar barabasi_100nodes_network.node[30].core_layer 	slots_sent[face$o[2]->node[4]] 	0
scalar barabasi_100nodes_network.node[30].core_layer 	slots_sent[face$o[3]->node[88]] 	31037312
scalar barabasi_100nodes_network.node[30].content_store 	p_hit[30] 	0.44505740430248
scalar barabasi_100nodes_network.node[30].content_store 	hits[30] 	125289
scalar barabasi_100nodes_network.node[30].content_store 	misses[30] 	156223
scalar barabasi_100nodes_network.node[30].content_store 	decision_yes[30] 	156223
scalar barabasi_100nodes_network.node[30].content_store 	decision_no[30] 	0
scalar barabasi_100nodes_network.node[30].content_store 	decision_ratio[30] 	1
scalar barabasi_100nodes_network.node[30].content_store 	"representation_breakdown[30] 0x7ffff5026a38:0x7ffff5026a38:0x7ffff5026a38:0x7ffff5026a38:0x7ffff5026a38:" 	0
scalar barabasi_100nodes_network.node[30].proactive_component 	hdistance[30].proactive_component 	2.689003160206
scalar barabasi_100nodes_network.node[30].proactive_component 	downloads[30].proactive_component 	472754
scalar barabasi_100nodes_network.node[30].proactive_component 	avg_time[30].proactive_component 	0
scalar barabasi_100nodes_network.node[31].core_layer 	interests[31] 	343131
scalar barabasi_100nodes_network.node[31].core_layer 	data[31] 	219536
scalar barabasi_100nodes_network.node[31].core_layer 	slots_sent[face$o[1]->client[31]] 	144818595
scalar barabasi_100nodes_network.node[31].core_layer 	slots_sent[face$o[2]->node[7]] 	0
scalar barabasi_100nodes_network.node[31].core_layer 	slots_sent[face$o[3]->node[65]] 	58766663
scalar barabasi_100nodes_network.node[31].content_store 	p_hit[31] 	0.36019770874681
scalar barabasi_100nodes_network.node[31].content_store 	hits[31] 	123595
scalar barabasi_100nodes_network.node[31].content_store 	misses[31] 	219536
scalar barabasi_100nodes_network.node[31].content_store 	decision_yes[31] 	219536
scalar barabasi_100nodes_network.node[31].content_store 	decision_no[31] 	0
scalar barabasi_100nodes_network.node[31].content_store 	decision_ratio[31] 	1
scalar barabasi_100nodes_network.node[31].content_store 	"representation_breakdown[31] 0x7ffff5026a38:0x7ffff5026a38:0x7ffff5026a38:0x7ffff5026a38:0x7ffff5026a38:" 	0
scalar barabasi_100nodes_network.node[31].proactive_component 	hdistance[31].proactive_component 	3.255711150641
scalar barabasi_100nodes_network.node[31].proactive_component 	downloads[31].proactive_component 	413752
scalar barabasi_100nodes_network.node[31].proactive_component 	avg_time[31].proactive_component 	0
scalar barabasi_100nodes_network.node[32].core_layer 	interests[32] 	365872
scalar barabasi_100nodes_network.node[32].core_layer 	data[32] 	228713
scalar barabasi_100nodes_network.node[32].core_layer 	slots_sent[face$o[1]->client[32]] 	140643759
scalar barabasi_100nodes_network.node[32].core_layer 	slots_sent[face$o[2]->node[2]] 	0
scalar barabasi_100nodes_network.node[32].core_layer 	slots_sent[face$o[3]->node[43]] 	34339500
scalar barabasi_100nodes_network.node[32].core_layer 	slots_sent[face$o[4]->node[64]] 	33824269
scalar barabasi_100nodes_network.node[32].content_store 	p_hit[32] 	0.37488247255871
scalar barabasi_100nodes_network.node[32].content_store 	hits[32] 	137159
scalar barabasi_100nodes_network.node[32].content_store 	misses[32] 	228713
scalar barabasi_100nodes_network.node[32].content_store 	decision_yes[32] 	228713
scalar barabasi_100nodes_network.node[32].content_store 	decision_no[32] 	0
[...]
scalar barabasi_100nodes_network.client[8] 	avg_time[8].real 	0
scalar barabasi_100nodes_network.client[9] 	hdistance[9].real 	1.1973798835874
scalar barabasi_100nodes_network.client[9] 	downloads[9].real 	180221
scalar barabasi_100nodes_network.client[9] 	avg_time[9].real 	0
scalar barabasi_100nodes_network.client[10] 	hdistance[10].real 	1.0834381014897
scalar barabasi_100nodes_network.client[10] 	downloads[10].real 	179762
scalar barabasi_100nodes_network.client[10] 	avg_time[10].real 	0
scalar barabasi_100nodes_network.client[11] 	hdistance[11].real 	1.0569136364141
scalar barabasi_100nodes_network.client[11] 	downloads[11].real 	180238
scalar barabasi_100nodes_network.client[11] 	avg_time[11].real 	0
scalar barabasi_100nodes_network.client[12] 	hdistance[12].real 	1.3435591999557
scalar barabasi_100nodes_network.client[12] 	downloads[12].real 	180490
scalar barabasi_100nodes_network.client[12] 	avg_time[12].real 	0
scalar barabasi_100nodes_network.client[13] 	hdistance[13].real 	1.3347201336675
scalar barabasi_100nodes_network.client[13] 	downloads[13].real 	179550
scalar barabasi_100nodes_network.client[13] 	avg_time[13].real 	0
scalar barabasi_100nodes_network.client[14] 	hdistance[14].real 	1.3954661905131
scalar barabasi_100nodes_network.client[14] 	downloads[14].real 	180334
scalar barabasi_100nodes_network.client[14] 	avg_time[14].real 	0
scalar barabasi_100nodes_network.client[15] 	hdistance[15].real 	1.1031870920556
scalar barabasi_100nodes_network.client[15] 	downloads[15].real 	180478
scalar barabasi_100nodes_network.client[15] 	avg_time[15].real 	0
scalar barabasi_100nodes_network.client[16] 	hdistance[16].real 	1.3608163310614
scalar barabasi_100nodes_network.client[16] 	downloads[16].real 	180172
scalar barabasi_100nodes_network.client[16] 	avg_time[16].real 	0
scalar barabasi_100nodes_network.client[17] 	hdistance[17].real 	1.3924315387688
scalar barabasi_100nodes_network.client[17] 	downloads[17].real 	180248
scalar barabasi_100nodes_network.client[17] 	avg_time[17].real 	0
scalar barabasi_100nodes_network.client[18] 	hdistance[18].real 	1.3401060267857
scalar barabasi_100nodes_network.client[18] 	downloads[18].real 	179200
scalar barabasi_100nodes_network.client[18] 	avg_time[18].real 	0
scalar barabasi_100nodes_network.client[19] 	hdistance[19].real 	1.6423298333129
scalar barabasi_100nodes_network.client[19] 	downloads[19].real 	179618
scalar barabasi_100nodes_network.client[19] 	avg_time[19].real 	0
scalar barabasi_100nodes_network.client[20] 	hdistance[20].real 	1.4958268300512
scalar barabasi_100nodes_network.client[20] 	downloads[20].real 	180678
scalar barabasi_100nodes_network.client[20] 	avg_time[20].real 	0
scalar barabasi_100nodes_network.client[21] 	hdistance[21].real 	1.1048565427268
scalar barabasi_100nodes_network.client[21] 	downloads[21].real 	180437
scalar barabasi_100nodes_network.client[21] 	avg_time[21].real 	0
scalar barabasi_100nodes_network.client[22] 	hdistance[22].real 	1.0623202460447
scalar barabasi_100nodes_network.client[22] 	downloads[22].real 	180455
scalar barabasi_100nodes_network.client[22] 	avg_time[22].real 	0
scalar barabasi_100nodes_network.client[23] 	hdistance[23].real 	1.6355450131656
scalar barabasi_100nodes_network.client[23] 	downloads[23].real 	180014
scalar barabasi_100nodes_network.client[23] 	avg_time[23].real 	0
scalar barabasi_100nodes_network.client[24] 	hdistance[24].real 	1.3068135251575
scalar barabasi_100nodes_network.client[24] 	downloads[24].real 	180582
scalar barabasi_100nodes_network.client[24] 	avg_time[24].real 	0
scalar barabasi_100nodes_network.client[25] 	hdistance[25].real 	1.2991709706737
scalar barabasi_100nodes_network.client[25] 	downloads[25].real 	180452
scalar barabasi_100nodes_network.client[25] 	avg_time[25].real 	0
scalar barabasi_100nodes_network.client[26] 	hdistance[26].real 	1.3304642467674
scalar barabasi_100nodes_network.client[26] 	downloads[26].real 	179732
scalar barabasi_100nodes_network.client[26] 	avg_time[26].real 	0
scalar barabasi_100nodes_network.client[27] 	hdistance[27].real 	1.3176874864683
scalar barabasi_100nodes_network.client[27] 	downloads[27].real 	180133
scalar barabasi_100nodes_network.client[27] 	avg_time[27].real 	0
scalar barabasi_100nodes_network.client[28] 	hdistance[28].real 	1.0592328864819
scalar barabasi_100nodes_network.client[28] 	downloads[28].real 	179478
scalar barabasi_100nodes_network.client[28] 	avg_time[28].real 	0
scalar barabasi_100nodes_network.client[29] 	hdistance[29].real 	1.2707685473123
scalar barabasi_100nodes_network.client[29] 	downloads[29].real 	180080
scalar barabasi_100nodes_network.client[29] 	avg_time[29].real 	0
scalar barabasi_100nodes_network.client[30] 	hdistance[30].real 	1.3304994391444
scalar barabasi_100nodes_network.client[30] 	downloads[30].real 	180082
scalar barabasi_100nodes_network.client[30] 	avg_time[30].real 	0
scalar barabasi_100nodes_network.client[31] 	hdistance[31].real 	1.5693815321387
scalar barabasi_100nodes_network.client[31] 	downloads[31].real 	181028
scalar barabasi_100nodes_network.client[31] 	avg_time[31].real 	0
scalar barabasi_100nodes_network.client[32] 	hdistance[32].real 	1.3208092967885
scalar barabasi_100nodes_network.client[32] 	downloads[32].real 	179761
scalar barabasi_100nodes_network.client[32] 	avg_time[32].real 	0
scalar barabasi_100nodes_network.client[33] 	hdistance[33].real 	1.2772848441856
scalar barabasi_100nodes_network.client[33] 	downloads[33].real 	180439
scalar barabasi_100nodes_network.client[33] 	avg_time[33].real 	0
scalar barabasi_100nodes_network.client[34] 	hdistance[34].real 	1.2730473840353
scalar barabasi_100nodes_network.client[34] 	downloads[34].real 	180335
scalar barabasi_100nodes_network.client[34] 	avg_time[34].real 	0
scalar barabasi_100nodes_network.client[35] 	hdistance[35].real 	1.2555112172263
scalar barabasi_100nodes_network.client[35] 	downloads[35].real 	179679
scalar barabasi_100nodes_network.client[35] 	avg_time[35].real 	0
scalar barabasi_100nodes_network.client[36] 	hdistance[36].real 	1.30226230186
scalar barabasi_100nodes_network.client[36] 	downloads[36].real 	178977
scalar barabasi_100nodes_network.client[36] 	avg_time[36].real 	0
scalar barabasi_100nodes_network.client[37] 	hdistance[37].real 	1.0073409191339
scalar barabasi_100nodes_network.client[37] 	downloads[37].real 	181040
scalar barabasi_100nodes_network.client[37] 	avg_time[37].real 	0
scalar barabasi_100nodes_network.client[38] 	hdistance[38].real 	1.5217044339889
scalar barabasi_100nodes_network.client[38] 	downloads[38].real 	180447
scalar barabasi_100nodes_network.client[38] 	avg_time[38].real 	0
scalar barabasi_100nodes_network.client[39] 	hdistance[39].real 	1.4228737541528
scalar barabasi_100nodes_network.client[39] 	downloads[39].real 	180600
scalar barabasi_100nodes_network.client[39] 	avg_time[39].real 	0
scalar barabasi_100nodes_network.client[40] 	hdistance[40].real 	1.3100395230588
scalar barabasi_100nodes_network.client[40] 	downloads[40].real 	180148
scalar barabasi_100nodes_network.client[40] 	avg_time[40].real 	0
scalar barabasi_100nodes_network.client[41] 	hdistance[41].real 	1.3486863715572
scalar barabasi_100nodes_network.client[41] 	downloads[41].real 	179617
scalar barabasi_100nodes_network.client[41] 	avg_time[41].real 	0
scalar barabasi_100nodes_network.client[42] 	hdistance[42].real 	1.4899652675836
scalar barabasi_100nodes_network.client[42] 	downloads[42].real 	180523
scalar barabasi_100nodes_network.client[42] 	avg_time[42].real 	0
scalar barabasi_100nodes_network.client[43] 	hdistance[43].real 	1.5044267436374
scalar barabasi_100nodes_network.client[43] 	downloads[43].real 	180155
scalar barabasi_100nodes_network.client[43] 	avg_time[43].real 	0
scalar barabasi_100nodes_network.client[44] 	hdistance[44].real 	1.058587025334
scalar barabasi_100nodes_network.client[44] 	downloads[44].real 	180074
scalar barabasi_100nodes_network.client[44] 	avg_time[44].real 	0
scalar barabasi_100nodes_network.client[45] 	hdistance[45].real 	1.2784679895004
scalar barabasi_100nodes_network.client[45] 	downloads[45].real 	179816
scalar barabasi_100nodes_network.client[45] 	avg_time[45].real 	0
scalar barabasi_100nodes_network.client[46] 	hdistance[46].real 	1.4961298806505
scalar barabasi_100nodes_network.client[46] 	downloads[46].real 	180227
scalar barabasi_100nodes_network.client[46] 	avg_time[46].real 	0
scalar barabasi_100nodes_network.client[47] 	hdistance[47].real 	1.7380271999379
scalar barabasi_100nodes_network.client[47] 	downloads[47].real 	180221
scalar barabasi_100nodes_network.client[47] 	avg_time[47].real 	0
scalar barabasi_100nodes_network.client[48] 	hdistance[48].real 	1.4959113190731
scalar barabasi_100nodes_network.client[48] 	downloads[48].real 	179520
scalar barabasi_100nodes_network.client[48] 	avg_time[48].real 	0
scalar barabasi_100nodes_network.client[49] 	hdistance[49].real 	1.4967454208182
scalar barabasi_100nodes_network.client[49] 	downloads[49].real 	180054
scalar barabasi_100nodes_network.client[49] 	avg_time[49].real 	0
scalar barabasi_100nodes_network.client[50] 	hdistance[50].real 	1.4701403917652
scalar barabasi_100nodes_network.client[50] 	downloads[50].real 	180210
scalar barabasi_100nodes_network.client[50] 	avg_time[50].real 	0
scalar barabasi_100nodes_network.client[51] 	hdistance[51].real 	1.7401652471226
scalar barabasi_100nodes_network.client[51] 	downloads[51].real 	180457
scalar barabasi_100nodes_network.client[51] 	avg_time[51].real 	0
scalar barabasi_100nodes_network.client[52] 	hdistance[52].real 	1.5224986500253
scalar barabasi_100nodes_network.client[52] 	downloads[52].real 	179633
scalar barabasi_100nodes_network.client[52] 	avg_time[52].real 	0
scalar barabasi_100nodes_network.client[53] 	hdistance[53].real 	1.4158395505818
scalar barabasi_100nodes_network.client[53] 	downloads[53].real 	180144
scalar barabasi_100nodes_network.client[53] 	avg_time[53].real 	0
scalar barabasi_100nodes_network.client[54] 	hdistance[54].real 	1.5319245929163
scalar barabasi_100nodes_network.client[54] 	downloads[54].real 	179877
scalar barabasi_100nodes_network.client[54] 	avg_time[54].real 	0
scalar barabasi_100nodes_network.client[55] 	hdistance[55].real 	1.3223726592176
scalar barabasi_100nodes_network.client[55] 	downloads[55].real 	180068
scalar barabasi_100nodes_network.client[55] 	avg_time[55].real 	0
scalar barabasi_100nodes_network.client[56] 	hdistance[56].real 	1.2998756508899
scalar barabasi_100nodes_network.client[56] 	downloads[56].real 	180138
scalar barabasi_100nodes_network.client[56] 	avg_time[56].real 	0
scalar barabasi_100nodes_network.client[57] 	hdistance[57].real 	1.1825754426802
scalar barabasi_100nodes_network.client[57] 	downloads[57].real 	180435
scalar barabasi_100nodes_network.client[57] 	avg_time[57].real 	0
scalar barabasi_100nodes_network.client[58] 	hdistance[58].real 	1.0859440563327
scalar barabasi_100nodes_network.client[58] 	downloads[58].real 	179931
scalar barabasi_100nodes_network.client[58] 	avg_time[58].real 	0
scalar barabasi_100nodes_network.client[59] 	hdistance[59].real 	1.2607037470074
scalar barabasi_100nodes_network.client[59] 	downloads[59].real 	179610
scalar barabasi_100nodes_network.client[59] 	avg_time[59].real 	0
scalar barabasi_100nodes_network.client[60] 	hdistance[60].real 	1.419299339651
scalar barabasi_100nodes_network.client[60] 	downloads[60].real 	179602
scalar barabasi_100nodes_network.client[60] 	avg_time[60].real 	0
scalar barabasi_100nodes_network.client[61] 	hdistance[61].real 	1.3950664664331
scalar barabasi_100nodes_network.client[61] 	downloads[61].real 	179790
scalar barabasi_100nodes_network.client[61] 	avg_time[61].real 	0
scalar barabasi_100nodes_network.client[62] 	hdistance[62].real 	1.3183951509759
scalar barabasi_100nodes_network.client[62] 	downloads[62].real 	179830
scalar barabasi_100nodes_network.client[62] 	avg_time[62].real 	0
scalar barabasi_100nodes_network.client[63] 	hdistance[63].real 	1.7667621490191
scalar barabasi_100nodes_network.client[63] 	downloads[63].real 	180138
scalar barabasi_100nodes_network.client[63] 	avg_time[63].real 	0
scalar barabasi_100nodes_network.client[64] 	hdistance[64].real 	1.5125107418278
scalar barabasi_100nodes_network.client[64] 	downloads[64].real 	179206
scalar barabasi_100nodes_network.client[64] 	avg_time[64].real 	0
scalar barabasi_100nodes_network.client[65] 	hdistance[65].real 	1.587279238129
scalar barabasi_100nodes_network.client[65] 	downloads[65].real 	180398
scalar barabasi_100nodes_network.client[65] 	avg_time[65].real 	0
scalar barabasi_100nodes_network.client[66] 	hdistance[66].real 	1.3914951775634
scalar barabasi_100nodes_network.client[66] 	downloads[66].real 	179992
scalar barabasi_100nodes_network.client[66] 	avg_time[66].real 	0
scalar barabasi_100nodes_network.client[67] 	hdistance[67].real 	1.5076545453538
scalar barabasi_100nodes_network.client[67] 	downloads[67].real 	180481
scalar barabasi_100nodes_network.client[67] 	avg_time[67].real 	0
scalar barabasi_100nodes_network.client[68] 	hdistance[68].real 	1.4070773394261
scalar barabasi_100nodes_network.client[68] 	downloads[68].real 	180322
scalar barabasi_100nodes_network.client[68] 	avg_time[68].real 	0
scalar barabasi_100nodes_network.client[69] 	hdistance[69].real 	1.4960256403135
scalar barabasi_100nodes_network.client[69] 	downloads[69].real 	180029
scalar barabasi_100nodes_network.client[69] 	avg_time[69].real 	0
scalar barabasi_100nodes_network.client[70] 	hdistance[70].real 	1.7650606747049
scalar barabasi_100nodes_network.client[70] 	downloads[70].real 	180553
scalar barabasi_100nodes_network.client[70] 	avg_time[70].real 	0
scalar barabasi_100nodes_network.client[71] 	hdistance[71].real 	1.3162072193328
scalar barabasi_100nodes_network.client[71] 	downloads[71].real 	180543
scalar barabasi_100nodes_network.client[71] 	avg_time[71].real 	0
scalar barabasi_100nodes_network.client[72] 	hdistance[72].real 	1.4117790865652
scalar barabasi_100nodes_network.client[72] 	downloads[72].real 	179980
scalar barabasi_100nodes_network.client[72] 	avg_time[72].real 	0
scalar barabasi_100nodes_network.client[73] 	hdistance[73].real 	1.0267956539164
scalar barabasi_100nodes_network.client[73] 	downloads[73].real 	179656
scalar barabasi_100nodes_network.client[73] 	avg_time[73].real 	0
scalar barabasi_100nodes_network.client[74] 	hdistance[74].real 	1.0570654136048
scalar barabasi_100nodes_network.client[74] 	downloads[74].real 	180039
scalar barabasi_100nodes_network.client[74] 	avg_time[74].real 	0
scalar barabasi_100nodes_network.client[75] 	hdistance[75].real 	1.5186024352682
scalar barabasi_100nodes_network.client[75] 	downloads[75].real 	180514
scalar barabasi_100nodes_network.client[75] 	avg_time[75].real 	0
scalar barabasi_100nodes_network.client[76] 	hdistance[76].real 	1.1734814451492
scalar barabasi_100nodes_network.client[76] 	downloads[76].real 	179414
scalar barabasi_100nodes_network.client[76] 	avg_time[76].real 	0
scalar barabasi_100nodes_network.client[77] 	hdistance[77].real 	1.3278522374834
scalar barabasi_100nodes_network.client[77] 	downloads[77].real 	180560
scalar barabasi_100nodes_network.client[77] 	avg_time[77].real 	0
scalar barabasi_100nodes_network.client[78] 	hdistance[78].real 	1.5887615802601
scalar barabasi_100nodes_network.client[78] 	downloads[78].real 	179616
scalar barabasi_100nodes_network.client[78] 	avg_time[78].real 	0
scalar barabasi_100nodes_network.client[79] 	hdistance[79].real 	1.2670302922031
scalar barabasi_100nodes_network.client[79] 	downloads[79].real 	179122
scalar barabasi_100nodes_network.client[79] 	avg_time[79].real 	0
scalar barabasi_100nodes_network.client[80] 	hdistance[80].real 	1.7533519057027
scalar barabasi_100nodes_network.client[80] 	downloads[80].real 	180196
scalar barabasi_100nodes_network.client[80] 	avg_time[80].real 	0
scalar barabasi_100nodes_network.client[81] 	hdistance[81].real 	1.4663010495254
scalar barabasi_100nodes_network.client[81] 	downloads[81].real 	179605
scalar barabasi_100nodes_network.client[81] 	avg_time[81].real 	0
scalar barabasi_100nodes_network.client[82] 	hdistance[82].real 	1.6332137262961
scalar barabasi_100nodes_network.client[82] 	downloads[82].real 	180034
scalar barabasi_100nodes_network.client[82] 	avg_time[82].real 	0
scalar barabasi_100nodes_network.client[83] 	hdistance[83].real 	1.7435648022056
scalar barabasi_100nodes_network.client[83] 	downloads[83].real 	179909
scalar barabasi_100nodes_network.client[83] 	avg_time[83].real 	0
scalar barabasi_100nodes_network.client[84] 	hdistance[84].real 	1.5855263157895
scalar barabasi_100nodes_network.client[84] 	downloads[84].real 	179816
scalar barabasi_100nodes_network.client[84] 	avg_time[84].real 	0
scalar barabasi_100nodes_network.client[85] 	hdistance[85].real 	1.2753479567977
scalar barabasi_100nodes_network.client[85] 	downloads[85].real 	179620
scalar barabasi_100nodes_network.client[85] 	avg_time[85].real 	0
scalar barabasi_100nodes_network.client[86] 	hdistance[86].real 	1.7446789557781
scalar barabasi_100nodes_network.client[86] 	downloads[86].real 	179617
scalar barabasi_100nodes_network.client[86] 	avg_time[86].real 	0
scalar barabasi_100nodes_network.client[87] 	hdistance[87].real 	1.7534223068535
scalar barabasi_100nodes_network.client[87] 	downloads[87].real 	180653
scalar barabasi_100nodes_network.client[87] 	avg_time[87].real 	0
scalar barabasi_100nodes_network.client[88] 	hdistance[88].real 	1.5498079712763
scalar barabasi_100nodes_network.client[88] 	downloads[88].real 	179921
scalar barabasi_100nodes_network.client[88] 	avg_time[88].real 	0
scalar barabasi_100nodes_network.client[89] 	hdistance[89].real 	1.752978655977
scalar barabasi_100nodes_network.client[89] 	downloads[89].real 	179863
scalar barabasi_100nodes_network.client[89] 	avg_time[89].real 	0
scalar barabasi_100nodes_network.client[90] 	hdistance[90].real 	1.2909334608796
scalar barabasi_100nodes_network.client[90] 	downloads[90].real 	179804
scalar barabasi_100nodes_network.client[90] 	avg_time[90].real 	0
scalar barabasi_100nodes_network.client[91] 	hdistance[91].real 	1.5138946818154
scalar barabasi_100nodes_network.client[91] 	downloads[91].real 	179817
scalar barabasi_100nodes_network.client[91] 	avg_time[91].real 	0
scalar barabasi_100nodes_network.client[92] 	hdistance[92].real 	1.7907635092004
scalar barabasi_100nodes_network.client[92] 	downloads[92].real 	180155
scalar barabasi_100nodes_network.client[92] 	avg_time[92].real 	0
scalar barabasi_100nodes_network.client[93] 	hdistance[93].real 	1.0624827097788
scalar barabasi_100nodes_network.client[93] 	downloads[93].real 	180738
scalar barabasi_100nodes_network.client[93] 	avg_time[93].real 	0
scalar barabasi_100nodes_network.client[94] 	hdistance[94].real 	1.314686050828
scalar barabasi_100nodes_network.client[94] 	downloads[94].real 	180491
scalar barabasi_100nodes_network.client[94] 	avg_time[94].real 	0
scalar barabasi_100nodes_network.client[95] 	hdistance[95].real 	1.339301084524
scalar barabasi_100nodes_network.client[95] 	downloads[95].real 	180079
scalar barabasi_100nodes_network.client[95] 	avg_time[95].real 	0
scalar barabasi_100nodes_network.client[96] 	hdistance[96].real 	1.4155281738889
scalar barabasi_100nodes_network.client[96] 	downloads[96].real 	180575
scalar barabasi_100nodes_network.client[96] 	avg_time[96].real 	0
scalar barabasi_100nodes_network.client[97] 	hdistance[97].real 	1.7447097079014
scalar barabasi_100nodes_network.client[97] 	downloads[97].real 	179905
scalar barabasi_100nodes_network.client[97] 	avg_time[97].real 	0
scalar barabasi_100nodes_network.client[98] 	hdistance[98].real 	1.6362420296963
scalar barabasi_100nodes_network.client[98] 	downloads[98].real 	179416
scalar barabasi_100nodes_network.client[98] 	avg_time[98].real 	0
scalar barabasi_100nodes_network.client[99] 	hdistance[99].real 	1.5503472028712
scalar barabasi_100nodes_network.client[99] 	downloads[99].real 	179434
scalar barabasi_100nodes_network.client[99] 	avg_time[99].real 	0
