version 2
run General-397-20150316-18:01:33-16143
attr D costaware0.01
attr F nrr
attr R lru
attr a 1
attr configname General
attr csize 1e3
attr ctlg 1e5
attr datetime 20150316-18:01:33
attr experiment General
attr inifile omnetpp.ini
attr iterationvars "$rep=20, $net=cost_scenario, $lambda=100, $a=1, $ctlg=1e5, $F=nrr, $ttl=10, $D=costaware0.01, $R=lru, $csize=1e3, $window=60, $variance=0.05, $mytime=18000, $kappa=1, $priceratiovalue=5, $splits=0.333_0.333_0.334, $pricebits=0"
attr iterationvars2 "$rep=20, $net=cost_scenario, $lambda=100, $a=1, $ctlg=1e5, $F=nrr, $ttl=10, $D=costaware0.01, $R=lru, $csize=1e3, $window=60, $variance=0.05, $mytime=18000, $kappa=1, $priceratiovalue=5, $splits=0.333_0.333_0.334, $pricebits=0, $repetition=0"
attr kappa 1
attr lambda 100
attr measurement "$rep=20, $net=cost_scenario, $lambda=100, $a=1, $ctlg=1e5, $F=nrr, $ttl=10, $D=costaware0.01, $R=lru, $csize=1e3, $window=60, $variance=0.05, $mytime=18000, $kappa=1, $priceratiovalue=5, $splits=0.333_0.333_0.334, $pricebits=0"
attr mytime 18000
attr net cost_scenario
attr network networks.${net=cost_scenario}_network
attr pricebits 0
attr priceratiovalue 5
attr processid 16143
attr rep 20
attr repetition 0
attr replication #0
attr resultdir results
attr runnumber 397
attr seedset 20
attr splits 0.333_0.333_0.334
attr ttl 10
attr variance 0.05
attr window 60

scalar . 	a 	1
scalar . 	csize 	1e3
scalar . 	ctlg 	1e5
scalar . 	kappa 	1
scalar . 	lambda 	100
scalar . 	mytime 	18000
scalar . 	pricebits 	0
scalar . 	priceratiovalue 	5
scalar . 	rep 	20
scalar . 	ttl 	10
scalar . 	variance 	0.05
scalar . 	window 	60
scalar cost_scenario_network.content_distribution 	repo-0 	1
scalar cost_scenario_network.content_distribution 	repo-1 	2
scalar cost_scenario_network.content_distribution 	repo-2 	3
scalar cost_scenario_network.content_distribution 	client-0 	0
scalar cost_scenario_network.content_distribution 	repo-0_card 	33322
scalar cost_scenario_network.content_distribution 	repo-0_price 	1
scalar cost_scenario_network.content_distribution 	repo-1_card 	33296
scalar cost_scenario_network.content_distribution 	repo-1_price 	5
scalar cost_scenario_network.content_distribution 	repo-2_card 	33382
scalar cost_scenario_network.content_distribution 	repo-2_price 	0
scalar cost_scenario_network.statistics 	repo_popularity[0] 	0.32454907338552
scalar cost_scenario_network.statistics 	repo_popularity[1] 	0.30216208059409
scalar cost_scenario_network.statistics 	repo_popularity[2] 	0.37328884602041
scalar cost_scenario_network.statistics 	stabilization_time 	1999.9
scalar cost_scenario_network.statistics 	p_hit 	0.21924978378351
scalar cost_scenario_network.statistics 	interests 	738553.75
scalar cost_scenario_network.statistics 	data 	288313
scalar cost_scenario_network.statistics 	hdistance 	1.2807059334366
scalar cost_scenario_network.statistics 	avg_time 	0
scalar cost_scenario_network.statistics 	downloads 	1800963
scalar cost_scenario_network.statistics 	total_cost 	1336218
scalar cost_scenario_network.statistics 	total_replicas 	100000
scalar cost_scenario_network.statistics 	inner_hit 	0.35964703328164
scalar cost_scenario_network.statistics 	interests_sent 	1800963
scalar cost_scenario_network.node[0].core_layer 	interests[0] 	1800963
scalar cost_scenario_network.node[0].core_layer 	data[0] 	1153252
scalar cost_scenario_network.node[0].core_layer 	repo_int[0] 	1153252
scalar cost_scenario_network.node[0].content_store 	p_hit[0] 	0.35964703328164
scalar cost_scenario_network.node[0].content_store 	hits[0] 	647711
scalar cost_scenario_network.node[0].content_store 	misses[0] 	1153252
scalar cost_scenario_network.node[0].content_store 	decision_yes[0] 	6667
scalar cost_scenario_network.node[0].content_store 	decision_no[0] 	1146585
scalar cost_scenario_network.node[0].content_store 	decision_ratio[0] 	0.0057810435186759
scalar cost_scenario_network.node[0].content_store 	cache_value[0] 	13.354374179742
scalar cost_scenario_network.node[0].content_store 	average_price_of_cache[0] 	3.616
scalar cost_scenario_network.node[0].content_store 	correction_factor[0] 	0.0049925112331503
scalar cost_scenario_network.node[0].content_store 	kappa[0] 	1
scalar cost_scenario_network.node[1].core_layer 	interests[1] 	265658
scalar cost_scenario_network.node[1].core_layer 	repo_load[1] 	265658
scalar cost_scenario_network.node[1].core_layer 	data[1] 	0
scalar cost_scenario_network.node[1].content_store 	p_hit[1] 	0
scalar cost_scenario_network.node[1].content_store 	hits[1] 	0
scalar cost_scenario_network.node[1].content_store 	misses[1] 	265658
scalar cost_scenario_network.node[1].content_store 	decision_yes[1] 	0
scalar cost_scenario_network.node[1].content_store 	decision_no[1] 	265658
scalar cost_scenario_network.node[1].content_store 	decision_ratio[1] 	0
scalar cost_scenario_network.node[1].content_store 	cache_value[1] 	1.3869979973679e-316
scalar cost_scenario_network.node[1].content_store 	average_price_of_cache[1] 	-nan
scalar cost_scenario_network.node[1].content_store 	correction_factor[1] 	0.0049925112331503
scalar cost_scenario_network.node[1].content_store 	kappa[1] 	1
scalar cost_scenario_network.node[2].core_layer 	interests[2] 	214112
scalar cost_scenario_network.node[2].core_layer 	repo_load[2] 	214112
scalar cost_scenario_network.node[2].core_layer 	data[2] 	0
scalar cost_scenario_network.node[2].content_store 	p_hit[2] 	0
scalar cost_scenario_network.node[2].content_store 	hits[2] 	0
scalar cost_scenario_network.node[2].content_store 	misses[2] 	214112
scalar cost_scenario_network.node[2].content_store 	decision_yes[2] 	0
scalar cost_scenario_network.node[2].content_store 	decision_no[2] 	214112
scalar cost_scenario_network.node[2].content_store 	decision_ratio[2] 	0
scalar cost_scenario_network.node[2].content_store 	cache_value[2] 	1.3871568888797e-316
scalar cost_scenario_network.node[2].content_store 	average_price_of_cache[2] 	-nan
scalar cost_scenario_network.node[2].content_store 	correction_factor[2] 	0.0049925112331503
scalar cost_scenario_network.node[2].content_store 	kappa[2] 	1
scalar cost_scenario_network.node[3].core_layer 	interests[3] 	673482
scalar cost_scenario_network.node[3].core_layer 	repo_load[3] 	673482
scalar cost_scenario_network.node[3].core_layer 	data[3] 	0
scalar cost_scenario_network.node[3].content_store 	p_hit[3] 	0
scalar cost_scenario_network.node[3].content_store 	hits[3] 	0
scalar cost_scenario_network.node[3].content_store 	misses[3] 	673482
scalar cost_scenario_network.node[3].content_store 	decision_yes[3] 	0
scalar cost_scenario_network.node[3].content_store 	decision_no[3] 	673482
scalar cost_scenario_network.node[3].content_store 	decision_ratio[3] 	0
scalar cost_scenario_network.node[3].content_store 	cache_value[3] 	1.3873157803914e-316
scalar cost_scenario_network.node[3].content_store 	average_price_of_cache[3] 	-nan
scalar cost_scenario_network.node[3].content_store 	correction_factor[3] 	0.0049925112331503
scalar cost_scenario_network.node[3].content_store 	kappa[3] 	1
scalar cost_scenario_network.client[0] 	hdistance[0] 	1.2807059334366
scalar cost_scenario_network.client[0] 	downloads[0] 	1800963
scalar cost_scenario_network.client[0] 	avg_time[0] 	0
scalar cost_scenario_network.client[0] 	interests_sent[0] 	1800963
