version 2
run General-12-20140519-17:42:08-21145
attr D costprobprodcorr0.01
attr F nrr
attr R lru
attr a 1
attr configname General
attr csize 1e3
attr ctlg 1e6
attr datetime 20140519-17:42:08
attr experiment General
attr inifile omnetpp.ini
attr iterationvars "$net=one_cache_scenario_3_links, $rep=5, $priceratiovalue=10, $weights=0.333_0.333_0.334, $a=1, $ctlg=1e6, $F=nrr, $ttl=1000, $D=costprobprodcorr0.01, $xi=1, $R=lru, $csize=1e3, $pricebits=0"
attr iterationvars2 "$net=one_cache_scenario_3_links, $rep=5, $priceratiovalue=10, $weights=0.333_0.333_0.334, $a=1, $ctlg=1e6, $F=nrr, $ttl=1000, $D=costprobprodcorr0.01, $xi=1, $R=lru, $csize=1e3, $pricebits=0, $repetition=0"
attr measurement "$net=one_cache_scenario_3_links, $rep=5, $priceratiovalue=10, $weights=0.333_0.333_0.334, $a=1, $ctlg=1e6, $F=nrr, $ttl=1000, $D=costprobprodcorr0.01, $xi=1, $R=lru, $csize=1e3, $pricebits=0"
attr net one_cache_scenario_3_links
attr network networks.${net=one_cache_scenario_3_links}_network
attr pricebits 0
attr priceratiovalue 10
attr processid 21145
attr rep 5
attr repetition 0
attr replication #0
attr resultdir results
attr runnumber 12
attr seedset 5
attr ttl 1000
attr weights 0.333_0.333_0.334
attr xi 1

scalar . 	a 	1
scalar . 	csize 	1e3
scalar . 	ctlg 	1e6
scalar . 	pricebits 	0
scalar . 	priceratiovalue 	10
scalar . 	rep 	5
scalar . 	ttl 	1000
scalar . 	xi 	1
scalar one_cache_scenario_3_links_network.content_distribution 	repo-0 	4
scalar one_cache_scenario_3_links_network.content_distribution 	repo-1 	5
scalar one_cache_scenario_3_links_network.content_distribution 	repo-2 	6
scalar one_cache_scenario_3_links_network.content_distribution 	client-0 	0
scalar one_cache_scenario_3_links_network.content_distribution 	repo-0_card 	332363
scalar one_cache_scenario_3_links_network.content_distribution 	repo-1_card 	333311
scalar one_cache_scenario_3_links_network.content_distribution 	repo-2_card 	334326
scalar one_cache_scenario_3_links_network.statistics 	p_hit 	0.09124316203755
scalar one_cache_scenario_3_links_network.statistics 	interests 	652711.14285714
scalar one_cache_scenario_3_links_network.statistics 	data 	395437.14285714
scalar one_cache_scenario_3_links_network.statistics 	hdistance 	1.5370272272253
scalar one_cache_scenario_3_links_network.statistics 	avg_time 	0
scalar one_cache_scenario_3_links_network.statistics 	downloads 	1800918
scalar one_cache_scenario_3_links_network.statistics 	total_cost 	3113330
scalar one_cache_scenario_3_links_network.statistics 	total_replicas 	1000000
scalar one_cache_scenario_3_links_network.statistics 	interests_sent 	1800918
scalar one_cache_scenario_3_links_network.node[0].core_layer 	interests[0] 	1800918
scalar one_cache_scenario_3_links_network.node[0].core_layer 	data[0] 	1384030
scalar one_cache_scenario_3_links_network.node[0].core_layer 	repo_int[0] 	1384030
scalar one_cache_scenario_3_links_network.node[0].content_store 	p_hit[0] 	0.23148638638739
scalar one_cache_scenario_3_links_network.node[0].content_store 	hits[0] 	416888
scalar one_cache_scenario_3_links_network.node[0].content_store 	misses[0] 	1384030
scalar one_cache_scenario_3_links_network.node[0].content_store 	decision_yes[0] 	8461
scalar one_cache_scenario_3_links_network.node[0].content_store 	decision_no[0] 	1375569
scalar one_cache_scenario_3_links_network.node[0].content_store 	decision_ratio[0] 	0.0061133067924828
scalar one_cache_scenario_3_links_network.node[0].content_store 	correction_factor[0] 	0.0027225701061802
scalar one_cache_scenario_3_links_network.node[0].content_store 	xi[0] 	1
scalar one_cache_scenario_3_links_network.node[1].core_layer 	interests[1] 	766103
scalar one_cache_scenario_3_links_network.node[1].core_layer 	data[1] 	766103
scalar one_cache_scenario_3_links_network.node[1].content_store 	p_hit[1] 	0
scalar one_cache_scenario_3_links_network.node[1].content_store 	hits[1] 	0
scalar one_cache_scenario_3_links_network.node[1].content_store 	misses[1] 	766103
scalar one_cache_scenario_3_links_network.node[1].content_store 	decision_yes[1] 	0
scalar one_cache_scenario_3_links_network.node[1].content_store 	decision_no[1] 	766103
scalar one_cache_scenario_3_links_network.node[1].content_store 	decision_ratio[1] 	0
scalar one_cache_scenario_3_links_network.node[2].core_layer 	interests[2] 	340660
scalar one_cache_scenario_3_links_network.node[2].core_layer 	data[2] 	340660
scalar one_cache_scenario_3_links_network.node[2].content_store 	p_hit[2] 	0
scalar one_cache_scenario_3_links_network.node[2].content_store 	hits[2] 	0
scalar one_cache_scenario_3_links_network.node[2].content_store 	misses[2] 	340660
scalar one_cache_scenario_3_links_network.node[2].content_store 	decision_yes[2] 	0
scalar one_cache_scenario_3_links_network.node[2].content_store 	decision_no[2] 	340660
scalar one_cache_scenario_3_links_network.node[2].content_store 	decision_ratio[2] 	0
scalar one_cache_scenario_3_links_network.node[3].core_layer 	interests[3] 	277267
scalar one_cache_scenario_3_links_network.node[3].core_layer 	data[3] 	277267
scalar one_cache_scenario_3_links_network.node[3].content_store 	p_hit[3] 	0
scalar one_cache_scenario_3_links_network.node[3].content_store 	hits[3] 	0
scalar one_cache_scenario_3_links_network.node[3].content_store 	misses[3] 	277267
scalar one_cache_scenario_3_links_network.node[3].content_store 	decision_yes[3] 	0
scalar one_cache_scenario_3_links_network.node[3].content_store 	decision_no[3] 	277267
scalar one_cache_scenario_3_links_network.node[3].content_store 	decision_ratio[3] 	0
scalar one_cache_scenario_3_links_network.node[4].core_layer 	interests[4] 	766103
scalar one_cache_scenario_3_links_network.node[4].core_layer 	repo_load[4] 	766103
scalar one_cache_scenario_3_links_network.node[4].core_layer 	data[4] 	0
scalar one_cache_scenario_3_links_network.node[4].content_store 	p_hit[4] 	0
scalar one_cache_scenario_3_links_network.node[4].content_store 	hits[4] 	0
scalar one_cache_scenario_3_links_network.node[4].content_store 	misses[4] 	766103
scalar one_cache_scenario_3_links_network.node[4].content_store 	decision_yes[4] 	0
scalar one_cache_scenario_3_links_network.node[4].content_store 	decision_no[4] 	766103
scalar one_cache_scenario_3_links_network.node[4].content_store 	decision_ratio[4] 	0
scalar one_cache_scenario_3_links_network.node[5].core_layer 	interests[5] 	340660
scalar one_cache_scenario_3_links_network.node[5].core_layer 	repo_load[5] 	340660
scalar one_cache_scenario_3_links_network.node[5].core_layer 	data[5] 	0
scalar one_cache_scenario_3_links_network.node[5].content_store 	p_hit[5] 	0
scalar one_cache_scenario_3_links_network.node[5].content_store 	hits[5] 	0
scalar one_cache_scenario_3_links_network.node[5].content_store 	misses[5] 	340660
scalar one_cache_scenario_3_links_network.node[5].content_store 	decision_yes[5] 	0
scalar one_cache_scenario_3_links_network.node[5].content_store 	decision_no[5] 	340660
scalar one_cache_scenario_3_links_network.node[5].content_store 	decision_ratio[5] 	0
scalar one_cache_scenario_3_links_network.node[6].core_layer 	interests[6] 	277267
scalar one_cache_scenario_3_links_network.node[6].core_layer 	repo_load[6] 	277267
scalar one_cache_scenario_3_links_network.node[6].core_layer 	data[6] 	0
scalar one_cache_scenario_3_links_network.node[6].content_store 	p_hit[6] 	0
scalar one_cache_scenario_3_links_network.node[6].content_store 	hits[6] 	0
scalar one_cache_scenario_3_links_network.node[6].content_store 	misses[6] 	277267
scalar one_cache_scenario_3_links_network.node[6].content_store 	decision_yes[6] 	0
scalar one_cache_scenario_3_links_network.node[6].content_store 	decision_no[6] 	277267
scalar one_cache_scenario_3_links_network.node[6].content_store 	decision_ratio[6] 	0
scalar one_cache_scenario_3_links_network.client[0] 	hdistance[0] 	1.5370272272253
scalar one_cache_scenario_3_links_network.client[0] 	downloads[0] 	1800918
scalar one_cache_scenario_3_links_network.client[0] 	avg_time[0] 	0
scalar one_cache_scenario_3_links_network.client[0] 	interests_sent[0] 	1800918
