version 2
run General-2-20141030-18:26:38-22372
attr D costaware0.1
attr F nrr
attr R lru
attr a 1
attr configname General
attr csize 1e3
attr ctlg 1e5
attr datetime 20141030-18:26:38
attr experiment General
attr inifile omnetpp.ini
attr iterationvars "$rep=3, $lambda=100, $a=1, $ctlg=1e5, $F=nrr, $ttl=10, $D=costaware0.1, $R=lru, $csize=1e3, $window=60, $variance=0.05, $mytime=1800, $kappa=1, $priceratiovalue=10, $pricebits=0"
attr iterationvars2 "$rep=3, $lambda=100, $a=1, $ctlg=1e5, $F=nrr, $ttl=10, $D=costaware0.1, $R=lru, $csize=1e3, $window=60, $variance=0.05, $mytime=1800, $kappa=1, $priceratiovalue=10, $pricebits=0, $repetition=0"
attr kappa 1
attr lambda 100
attr measurement "$rep=3, $lambda=100, $a=1, $ctlg=1e5, $F=nrr, $ttl=10, $D=costaware0.1, $R=lru, $csize=1e3, $window=60, $variance=0.05, $mytime=1800, $kappa=1, $priceratiovalue=10, $pricebits=0"
attr mytime 1800
attr network networks.ws${rep}_network
attr pricebits 0
attr priceratiovalue 10
attr processid 22372
attr rep 3
attr repetition 0
attr replication #0
attr resultdir results
attr runnumber 2
attr seedset 3
attr ttl 10
attr variance 0.05
attr window 60

scalar . 	a 	1
scalar . 	csize 	1e3
scalar . 	ctlg 	1e5
scalar . 	kappa 	1
scalar . 	lambda 	100
scalar . 	mytime 	1800
scalar . 	pricebits 	0
scalar . 	priceratiovalue 	10
scalar . 	rep 	3
scalar . 	ttl 	10
scalar . 	variance 	0.05
scalar . 	window 	60
scalar ws3_network.content_distribution 	repo-0 	9
scalar ws3_network.content_distribution 	repo-1 	4
scalar ws3_network.content_distribution 	repo-2 	15
scalar ws3_network.content_distribution 	client-0 	17
scalar ws3_network.content_distribution 	client-1 	16
scalar ws3_network.content_distribution 	client-2 	8
scalar ws3_network.content_distribution 	repo-0_card 	33499
scalar ws3_network.content_distribution 	repo-0_price 	0
scalar ws3_network.content_distribution 	repo-1_card 	33168
scalar ws3_network.content_distribution 	repo-1_price 	1
scalar ws3_network.content_distribution 	repo-2_card 	33333
scalar ws3_network.content_distribution 	repo-2_price 	10
scalar ws3_network.statistics 	repo_popularity[0] 	0.45192118428998
scalar ws3_network.statistics 	repo_popularity[1] 	0.26082990079581
scalar ws3_network.statistics 	repo_popularity[2] 	0.28724891491422
