version 2
run General-61-20140516-21:00:17-9495
attr D costprobprodcorr0.01
attr F nrr
attr R lru
attr a 1
attr configname General
attr csize 10
attr ctlg 1e3
attr datetime 20140516-21:00:17
attr experiment General
attr inifile omnetpp.ini
attr iterationvars "$net=one_cache_scenario_3_links, $rep=4, $priceratiovalue=1.2, $weights=0.333_0.333_0.334, $a=1, $ctlg=1e3, $F=nrr, $ttl=1000, $D=costprobprodcorr0.01, $xi=1.50, $R=lru, $csize=10, $q=0"
attr iterationvars2 "$net=one_cache_scenario_3_links, $rep=4, $priceratiovalue=1.2, $weights=0.333_0.333_0.334, $a=1, $ctlg=1e3, $F=nrr, $ttl=1000, $D=costprobprodcorr0.01, $xi=1.50, $R=lru, $csize=10, $q=0, $repetition=0"
attr measurement "$net=one_cache_scenario_3_links, $rep=4, $priceratiovalue=1.2, $weights=0.333_0.333_0.334, $a=1, $ctlg=1e3, $F=nrr, $ttl=1000, $D=costprobprodcorr0.01, $xi=1.50, $R=lru, $csize=10, $q=0"
attr net one_cache_scenario_3_links
attr network networks.${net=one_cache_scenario_3_links}_network
attr priceratiovalue 1.2
attr processid 9495
attr q 0
attr rep 4
attr repetition 0
attr replication #0
attr resultdir results
attr runnumber 61
attr seedset 4
attr ttl 1000
attr weights 0.333_0.333_0.334
attr xi 1.50

scalar . 	a 	1
scalar . 	csize 	10
scalar . 	ctlg 	1e3
scalar . 	priceratiovalue 	1.2
scalar . 	q 	0
scalar . 	rep 	4
scalar . 	ttl 	1000
scalar . 	xi 	1.50
scalar one_cache_scenario_3_links_network.content_distribution 	repo-0 	4
scalar one_cache_scenario_3_links_network.content_distribution 	repo-1 	5
scalar one_cache_scenario_3_links_network.content_distribution 	repo-2 	6
scalar one_cache_scenario_3_links_network.content_distribution 	client-0 	0
scalar one_cache_scenario_3_links_network.content_distribution 	repo-0_card 	363
scalar one_cache_scenario_3_links_network.content_distribution 	repo-1_card 	294
scalar one_cache_scenario_3_links_network.content_distribution 	repo-2_card 	343
scalar one_cache_scenario_3_links_network.node[1].face$o[2].channel 	price[1] 	0
scalar one_cache_scenario_3_links_network.node[1].face$o[2].channel 	represented_price[1] 	0
scalar one_cache_scenario_3_links_network.node[2].face$o[2].channel 	price[2] 	0
scalar one_cache_scenario_3_links_network.node[2].face$o[2].channel 	represented_price[2] 	0
scalar one_cache_scenario_3_links_network.node[3].face$o[2].channel 	price[3] 	0
scalar one_cache_scenario_3_links_network.node[3].face$o[2].channel 	represented_price[3] 	0
scalar one_cache_scenario_3_links_network.node[4].face$o[1].channel 	price[4] 	0
scalar one_cache_scenario_3_links_network.node[4].face$o[1].channel 	represented_price[4] 	0
scalar one_cache_scenario_3_links_network.node[5].face$o[1].channel 	price[5] 	1
scalar one_cache_scenario_3_links_network.node[5].face$o[1].channel 	represented_price[5] 	1
scalar one_cache_scenario_3_links_network.node[6].face$o[1].channel 	price[6] 	1
scalar one_cache_scenario_3_links_network.node[6].face$o[1].channel 	represented_price[6] 	1
scalar one_cache_scenario_3_links_network.statistics 	p_hit 	0.13146570855896
scalar one_cache_scenario_3_links_network.statistics 	interests 	61152.285714286
scalar one_cache_scenario_3_links_network.statistics 	data 	35408.571428571
scalar one_cache_scenario_3_links_network.statistics 	hdistance 	1.3754259014683
scalar one_cache_scenario_3_links_network.statistics 	avg_time 	0
scalar one_cache_scenario_3_links_network.statistics 	downloads 	180206
scalar one_cache_scenario_3_links_network.statistics 	total_cost 	78370
scalar one_cache_scenario_3_links_network.statistics 	total_replicas 	1000
scalar one_cache_scenario_3_links_network.statistics 	interests_sent 	180206
scalar one_cache_scenario_3_links_network.node[0].core_layer 	interests[0] 	180206
scalar one_cache_scenario_3_links_network.node[0].core_layer 	data[0] 	123930
scalar one_cache_scenario_3_links_network.node[0].core_layer 	repo_int[0] 	123930
scalar one_cache_scenario_3_links_network.node[0].content_store 	p_hit[0] 	0.31228704926584
scalar one_cache_scenario_3_links_network.node[0].content_store 	hits[0] 	56276
scalar one_cache_scenario_3_links_network.node[0].content_store 	misses[0] 	123930
scalar one_cache_scenario_3_links_network.node[0].content_store 	decision_yes[0] 	1196
scalar one_cache_scenario_3_links_network.node[0].content_store 	decision_no[0] 	122734
scalar one_cache_scenario_3_links_network.node[0].content_store 	decision_ratio[0] 	0.0096506092148794
scalar one_cache_scenario_3_links_network.node[0].content_store 	correction_factor[0] 	0.014992503748126
scalar one_cache_scenario_3_links_network.node[0].content_store 	xi[0] 	1.5
scalar one_cache_scenario_3_links_network.node[1].core_layer 	interests[1] 	45560
scalar one_cache_scenario_3_links_network.node[1].core_layer 	data[1] 	45560
scalar one_cache_scenario_3_links_network.node[1].content_store 	p_hit[1] 	0
scalar one_cache_scenario_3_links_network.node[1].content_store 	hits[1] 	0
scalar one_cache_scenario_3_links_network.node[1].content_store 	misses[1] 	45560
scalar one_cache_scenario_3_links_network.node[1].content_store 	decision_yes[1] 	0
scalar one_cache_scenario_3_links_network.node[1].content_store 	decision_no[1] 	45560
scalar one_cache_scenario_3_links_network.node[1].content_store 	decision_ratio[1] 	0
scalar one_cache_scenario_3_links_network.node[2].core_layer 	interests[2] 	36939
scalar one_cache_scenario_3_links_network.node[2].core_layer 	data[2] 	36939
scalar one_cache_scenario_3_links_network.node[2].content_store 	p_hit[2] 	0
scalar one_cache_scenario_3_links_network.node[2].content_store 	hits[2] 	0
scalar one_cache_scenario_3_links_network.node[2].content_store 	misses[2] 	36939
scalar one_cache_scenario_3_links_network.node[2].content_store 	decision_yes[2] 	0
scalar one_cache_scenario_3_links_network.node[2].content_store 	decision_no[2] 	36939
scalar one_cache_scenario_3_links_network.node[2].content_store 	decision_ratio[2] 	0
scalar one_cache_scenario_3_links_network.node[3].core_layer 	interests[3] 	41431
scalar one_cache_scenario_3_links_network.node[3].core_layer 	data[3] 	41431
scalar one_cache_scenario_3_links_network.node[3].content_store 	p_hit[3] 	0
scalar one_cache_scenario_3_links_network.node[3].content_store 	hits[3] 	0
scalar one_cache_scenario_3_links_network.node[3].content_store 	misses[3] 	41431
scalar one_cache_scenario_3_links_network.node[3].content_store 	decision_yes[3] 	0
scalar one_cache_scenario_3_links_network.node[3].content_store 	decision_no[3] 	41431
scalar one_cache_scenario_3_links_network.node[3].content_store 	decision_ratio[3] 	0
scalar one_cache_scenario_3_links_network.node[4].core_layer 	interests[4] 	45560
scalar one_cache_scenario_3_links_network.node[4].core_layer 	repo_load[4] 	45560
scalar one_cache_scenario_3_links_network.node[4].core_layer 	data[4] 	0
scalar one_cache_scenario_3_links_network.node[4].content_store 	p_hit[4] 	0
scalar one_cache_scenario_3_links_network.node[4].content_store 	hits[4] 	0
scalar one_cache_scenario_3_links_network.node[4].content_store 	misses[4] 	45560
scalar one_cache_scenario_3_links_network.node[4].content_store 	decision_yes[4] 	0
scalar one_cache_scenario_3_links_network.node[4].content_store 	decision_no[4] 	45560
scalar one_cache_scenario_3_links_network.node[4].content_store 	decision_ratio[4] 	0
scalar one_cache_scenario_3_links_network.node[5].core_layer 	interests[5] 	36939
scalar one_cache_scenario_3_links_network.node[5].core_layer 	repo_load[5] 	36939
scalar one_cache_scenario_3_links_network.node[5].core_layer 	data[5] 	0
scalar one_cache_scenario_3_links_network.node[5].content_store 	p_hit[5] 	0
scalar one_cache_scenario_3_links_network.node[5].content_store 	hits[5] 	0
scalar one_cache_scenario_3_links_network.node[5].content_store 	misses[5] 	36939
scalar one_cache_scenario_3_links_network.node[5].content_store 	decision_yes[5] 	0
scalar one_cache_scenario_3_links_network.node[5].content_store 	decision_no[5] 	36939
scalar one_cache_scenario_3_links_network.node[5].content_store 	decision_ratio[5] 	0
scalar one_cache_scenario_3_links_network.node[6].core_layer 	interests[6] 	41431
scalar one_cache_scenario_3_links_network.node[6].core_layer 	repo_load[6] 	41431
scalar one_cache_scenario_3_links_network.node[6].core_layer 	data[6] 	0
scalar one_cache_scenario_3_links_network.node[6].content_store 	p_hit[6] 	0
scalar one_cache_scenario_3_links_network.node[6].content_store 	hits[6] 	0
scalar one_cache_scenario_3_links_network.node[6].content_store 	misses[6] 	41431
scalar one_cache_scenario_3_links_network.node[6].content_store 	decision_yes[6] 	0
scalar one_cache_scenario_3_links_network.node[6].content_store 	decision_no[6] 	41431
scalar one_cache_scenario_3_links_network.node[6].content_store 	decision_ratio[6] 	0
scalar one_cache_scenario_3_links_network.client[0] 	hdistance[0] 	1.3754259014683
scalar one_cache_scenario_3_links_network.client[0] 	downloads[0] 	180206
scalar one_cache_scenario_3_links_network.client[0] 	avg_time[0] 	0
scalar one_cache_scenario_3_links_network.client[0] 	interests_sent[0] 	180206
