version 2
run General-19-20150720-19:06:56-16251
attr C 116667
attr D lce
attr F spr
attr R lru
attr a 1
attr brates 1
attr configname General
attr ctlg 1e6
attr datetime 20150720-19:06:56
attr experiment General
attr inifile omnetpp.ini
attr iterationvars "$net=abilene_nodelay, $rep=9, $lambda=100, $a=1, $ctlg=1e6, $brates=1, $F=spr, $ttl=1000, $D=lce, $R=lru, $C=116667, $window=60, $variance=0.05, $mytime=1800"
attr iterationvars2 "$net=abilene_nodelay, $rep=9, $lambda=100, $a=1, $ctlg=1e6, $brates=1, $F=spr, $ttl=1000, $D=lce, $R=lru, $C=116667, $window=60, $variance=0.05, $mytime=1800, $repetition=0"
attr lambda 100
attr measurement "$net=abilene_nodelay, $rep=9, $lambda=100, $a=1, $ctlg=1e6, $brates=1, $F=spr, $ttl=1000, $D=lce, $R=lru, $C=116667, $window=60, $variance=0.05, $mytime=1800"
attr mytime 1800
attr net abilene_nodelay
attr network networks.${net=abilene_nodelay}_network
attr processid 16251
attr rep 9
attr repetition 0
attr replication #0
attr resultdir results
attr runnumber 19
attr seedset 9
attr ttl 1000
attr variance 0.05
attr window 60

scalar . 	C 	116667
scalar . 	a 	1
scalar . 	brates 	1
scalar . 	ctlg 	1e6
scalar . 	lambda 	100
scalar . 	mytime 	1800
scalar . 	rep 	9
scalar . 	ttl 	1000
scalar . 	variance 	0.05
scalar . 	window 	60
scalar abilene_nodelay_network.content_distribution 	repo-0 	1
scalar abilene_nodelay_network.content_distribution 	repo-1 	9
scalar abilene_nodelay_network.content_distribution 	repo-2 	5
scalar abilene_nodelay_network.content_distribution 	repo-3 	6
scalar abilene_nodelay_network.content_distribution 	repo-4 	4
scalar abilene_nodelay_network.content_distribution 	repo-5 	0
scalar abilene_nodelay_network.content_distribution 	repo-6 	3
scalar abilene_nodelay_network.content_distribution 	repo-7 	7
scalar abilene_nodelay_network.content_distribution 	repo-8 	8
scalar abilene_nodelay_network.content_distribution 	repo-9 	2
scalar abilene_nodelay_network.content_distribution 	repo-10 	10
scalar abilene_nodelay_network.content_distribution 	client-0 	4
scalar abilene_nodelay_network.content_distribution 	client-1 	7
scalar abilene_nodelay_network.content_distribution 	client-2 	1
scalar abilene_nodelay_network.content_distribution 	client-3 	5
scalar abilene_nodelay_network.content_distribution 	client-4 	0
scalar abilene_nodelay_network.content_distribution 	client-5 	3
scalar abilene_nodelay_network.content_distribution 	client-6 	9
scalar abilene_nodelay_network.content_distribution 	client-7 	10
scalar abilene_nodelay_network.content_distribution 	client-8 	2
scalar abilene_nodelay_network.content_distribution 	client-9 	6
scalar abilene_nodelay_network.content_distribution 	client-10 	8
scalar abilene_nodelay_network.content_distribution 	repo-0_card 	90972
scalar abilene_nodelay_network.content_distribution 	repo-0_price 	0
scalar abilene_nodelay_network.content_distribution 	repo-1_card 	91139
scalar abilene_nodelay_network.content_distribution 	repo-1_price 	0
scalar abilene_nodelay_network.content_distribution 	repo-2_card 	91359
scalar abilene_nodelay_network.content_distribution 	repo-2_price 	0
scalar abilene_nodelay_network.content_distribution 	repo-3_card 	90815
scalar abilene_nodelay_network.content_distribution 	repo-3_price 	0
scalar abilene_nodelay_network.content_distribution 	repo-4_card 	90931
scalar abilene_nodelay_network.content_distribution 	repo-4_price 	0
scalar abilene_nodelay_network.content_distribution 	repo-5_card 	90733
scalar abilene_nodelay_network.content_distribution 	repo-5_price 	0
scalar abilene_nodelay_network.content_distribution 	repo-6_card 	90960
scalar abilene_nodelay_network.content_distribution 	repo-6_price 	0
scalar abilene_nodelay_network.content_distribution 	repo-7_card 	90328
scalar abilene_nodelay_network.content_distribution 	repo-7_price 	0
scalar abilene_nodelay_network.content_distribution 	repo-8_card 	90956
scalar abilene_nodelay_network.content_distribution 	repo-8_price 	0
scalar abilene_nodelay_network.content_distribution 	repo-9_card 	91062
scalar abilene_nodelay_network.content_distribution 	repo-9_price 	0
scalar abilene_nodelay_network.content_distribution 	repo-10_card 	90745
scalar abilene_nodelay_network.content_distribution 	repo-10_price 	0
scalar abilene_nodelay_network.statistics 	stabilization_time 	4877.5
scalar abilene_nodelay_network.statistics 	p_hit 	0.51842514132692
scalar abilene_nodelay_network.statistics 	interests 	259906.72727273
scalar abilene_nodelay_network.statistics 	data 	79954.181818182
scalar abilene_nodelay_network.statistics 	hdistance 	0.69550731662606
scalar abilene_nodelay_network.statistics 	avg_time 	0
scalar abilene_nodelay_network.statistics 	downloads 	1979478
scalar abilene_nodelay_network.statistics 	total_cost 	0
scalar abilene_nodelay_network.statistics 	total_replicas 	1000000
scalar abilene_nodelay_network.statistics 	"representations_downloaded 1:" 	0
scalar abilene_nodelay_network.statistics 	"slots_per_representation 100:" 	0
scalar abilene_nodelay_network.statistics 	inner_hit 	0.74876507847018
scalar abilene_nodelay_network.statistics 	execution_time 	123
scalar abilene_nodelay_network.node[0].core_layer 	interests[0] 	205909
scalar abilene_nodelay_network.node[0].core_layer 	repo_load[0] 	41097
scalar abilene_nodelay_network.node[0].core_layer 	data[0] 	39648
scalar abilene_nodelay_network.node[0].core_layer 	slots_sent[face$o[1]->client[0]] 	18015500
scalar abilene_nodelay_network.node[0].core_layer 	slots_sent[face$o[2]->node[1]] 	1926800
scalar abilene_nodelay_network.node[0].core_layer 	slots_sent[face$o[3]->node[10]] 	648600
scalar abilene_nodelay_network.node[0].content_store 	p_hit[0] 	0.60786075402241
scalar abilene_nodelay_network.node[0].content_store 	hits[0] 	125164
scalar abilene_nodelay_network.node[0].content_store 	misses[0] 	80745
scalar abilene_nodelay_network.node[0].content_store 	decision_yes[0] 	39648
scalar abilene_nodelay_network.node[0].content_store 	decision_no[0] 	41097
scalar abilene_nodelay_network.node[0].content_store 	decision_ratio[0] 	0.49102730819246
scalar abilene_nodelay_network.node[1].core_layer 	interests[1] 	288418
scalar abilene_nodelay_network.node[1].core_layer 	repo_load[1] 	44239
scalar abilene_nodelay_network.node[1].core_layer 	data[1] 	101513
scalar abilene_nodelay_network.node[1].core_layer 	slots_sent[face$o[1]->client[1]] 	17979500
scalar abilene_nodelay_network.node[1].core_layer 	slots_sent[face$o[2]->node[0]] 	3176200
scalar abilene_nodelay_network.node[1].core_layer 	slots_sent[face$o[3]->node[10]] 	2285300
scalar abilene_nodelay_network.node[1].core_layer 	slots_sent[face$o[4]->node[2]] 	5400800
scalar abilene_nodelay_network.node[1].content_store 	p_hit[1] 	0.494650125859
scalar abilene_nodelay_network.node[1].content_store 	hits[1] 	142666
scalar abilene_nodelay_network.node[1].content_store 	misses[1] 	145752
scalar abilene_nodelay_network.node[1].content_store 	decision_yes[1] 	101513
scalar abilene_nodelay_network.node[1].content_store 	decision_no[1] 	44239
scalar abilene_nodelay_network.node[1].content_store 	decision_ratio[1] 	0.69647757835227
scalar abilene_nodelay_network.node[2].core_layer 	interests[2] 	348518
scalar abilene_nodelay_network.node[2].core_layer 	repo_load[2] 	51026
scalar abilene_nodelay_network.node[2].core_layer 	data[2] 	153631
scalar abilene_nodelay_network.node[2].core_layer 	slots_sent[face$o[1]->client[2]] 	17984300
scalar abilene_nodelay_network.node[2].core_layer 	slots_sent[face$o[2]->node[1]] 	6317300
scalar abilene_nodelay_network.node[2].core_layer 	slots_sent[face$o[3]->node[3]] 	7399800
scalar abilene_nodelay_network.node[2].core_layer 	slots_sent[face$o[4]->node[8]] 	3150400
scalar abilene_nodelay_network.node[2].content_store 	p_hit[2] 	0.41277925386924
scalar abilene_nodelay_network.node[2].content_store 	hits[2] 	143861
scalar abilene_nodelay_network.node[2].content_store 	misses[2] 	204657
scalar abilene_nodelay_network.node[2].content_store 	decision_yes[2] 	153631
scalar abilene_nodelay_network.node[2].content_store 	decision_no[2] 	51026
scalar abilene_nodelay_network.node[2].content_store 	decision_ratio[2] 	0.75067552050504
scalar abilene_nodelay_network.node[3].core_layer 	interests[3] 	333296
scalar abilene_nodelay_network.node[3].core_layer 	repo_load[3] 	44513
scalar abilene_nodelay_network.node[3].core_layer 	data[3] 	140997
scalar abilene_nodelay_network.node[3].core_layer 	slots_sent[face$o[1]->client[3]] 	17975400
scalar abilene_nodelay_network.node[3].core_layer 	slots_sent[face$o[2]->node[2]] 	7166800
scalar abilene_nodelay_network.node[3].core_layer 	slots_sent[face$o[3]->node[4]] 	4737000
scalar abilene_nodelay_network.node[3].core_layer 	slots_sent[face$o[4]->node[7]] 	3450400
scalar abilene_nodelay_network.node[3].content_store 	p_hit[3] 	0.44340766165811
scalar abilene_nodelay_network.node[3].content_store 	hits[3] 	147786
scalar abilene_nodelay_network.node[3].content_store 	misses[3] 	185510
scalar abilene_nodelay_network.node[3].content_store 	decision_yes[3] 	140997
scalar abilene_nodelay_network.node[3].content_store 	decision_no[3] 	44513
scalar abilene_nodelay_network.node[3].content_store 	decision_ratio[3] 	0.76005067112285
scalar abilene_nodelay_network.node[4].core_layer 	interests[4] 	244387
scalar abilene_nodelay_network.node[4].core_layer 	repo_load[4] 	44458
scalar abilene_nodelay_network.node[4].core_layer 	data[4] 	65903
scalar abilene_nodelay_network.node[4].core_layer 	slots_sent[face$o[1]->client[4]] 	18032700
scalar abilene_nodelay_network.node[4].core_layer 	slots_sent[face$o[2]->node[3]] 	3752900
scalar abilene_nodelay_network.node[4].core_layer 	slots_sent[face$o[3]->node[5]] 	2653100
scalar abilene_nodelay_network.node[4].content_store 	p_hit[4] 	0.54841705982724
scalar abilene_nodelay_network.node[4].content_store 	hits[4] 	134026
scalar abilene_nodelay_network.node[4].content_store 	misses[4] 	110361
scalar abilene_nodelay_network.node[4].content_store 	decision_yes[4] 	65903
scalar abilene_nodelay_network.node[4].content_store 	decision_no[4] 	44458
scalar abilene_nodelay_network.node[4].content_store 	decision_ratio[4] 	0.59715841646959
scalar abilene_nodelay_network.node[5].core_layer 	interests[5] 	212942
scalar abilene_nodelay_network.node[5].core_layer 	repo_load[5] 	37293
scalar abilene_nodelay_network.node[5].core_layer 	data[5] 	44989
scalar abilene_nodelay_network.node[5].core_layer 	slots_sent[face$o[1]->client[5]] 	17996400
scalar abilene_nodelay_network.node[5].core_layer 	slots_sent[face$o[2]->node[4]] 	1853300
scalar abilene_nodelay_network.node[5].core_layer 	slots_sent[face$o[3]->node[6]] 	1444500
scalar abilene_nodelay_network.node[5].content_store 	p_hit[5] 	0.6135943120662
scalar abilene_nodelay_network.node[5].content_store 	hits[5] 	130660
scalar abilene_nodelay_network.node[5].content_store 	misses[5] 	82282
scalar abilene_nodelay_network.node[5].content_store 	decision_yes[5] 	44989
scalar abilene_nodelay_network.node[5].content_store 	decision_no[5] 	37293
scalar abilene_nodelay_network.node[5].content_store 	decision_ratio[5] 	0.54676599985416
scalar abilene_nodelay_network.node[6].core_layer 	interests[6] 	227125
scalar abilene_nodelay_network.node[6].core_layer 	repo_load[6] 	55716
scalar abilene_nodelay_network.node[6].core_layer 	data[6] 	54503
scalar abilene_nodelay_network.node[6].core_layer 	slots_sent[face$o[1]->client[6]] 	18008300
scalar abilene_nodelay_network.node[6].core_layer 	slots_sent[face$o[2]->node[5]] 	1845800
scalar abilene_nodelay_network.node[6].core_layer 	slots_sent[face$o[3]->node[7]] 	2858400
scalar abilene_nodelay_network.node[6].content_store 	p_hit[6] 	0.51472096862961
scalar abilene_nodelay_network.node[6].content_store 	hits[6] 	116906
scalar abilene_nodelay_network.node[6].content_store 	misses[6] 	110219
scalar abilene_nodelay_network.node[6].content_store 	decision_yes[6] 	54503
scalar abilene_nodelay_network.node[6].content_store 	decision_no[6] 	55716
scalar abilene_nodelay_network.node[6].content_store 	decision_ratio[6] 	0.49449731897404
scalar abilene_nodelay_network.node[7].core_layer 	interests[7] 	275201
scalar abilene_nodelay_network.node[7].core_layer 	repo_load[7] 	50771
scalar abilene_nodelay_network.node[7].core_layer 	data[7] 	89578
scalar abilene_nodelay_network.node[7].core_layer 	slots_sent[face$o[1]->client[7]] 	17942100
scalar abilene_nodelay_network.node[7].core_layer 	slots_sent[face$o[2]->node[3]] 	2947000
scalar abilene_nodelay_network.node[7].core_layer 	slots_sent[face$o[3]->node[6]] 	4005800
scalar abilene_nodelay_network.node[7].core_layer 	slots_sent[face$o[4]->node[8]] 	2625200
scalar abilene_nodelay_network.node[7].content_store 	p_hit[7] 	0.49001275431412
scalar abilene_nodelay_network.node[7].content_store 	hits[7] 	134852
scalar abilene_nodelay_network.node[7].content_store 	misses[7] 	140349
scalar abilene_nodelay_network.node[7].content_store 	decision_yes[7] 	89578
scalar abilene_nodelay_network.node[7].content_store 	decision_no[7] 	50771
scalar abilene_nodelay_network.node[7].content_store 	decision_ratio[7] 	0.63825178661765
scalar abilene_nodelay_network.node[8].core_layer 	interests[8] 	270432
scalar abilene_nodelay_network.node[8].core_layer 	repo_load[8] 	44869
scalar abilene_nodelay_network.node[8].core_layer 	data[8] 	84427
scalar abilene_nodelay_network.node[8].core_layer 	slots_sent[face$o[1]->client[8]] 	17982900
scalar abilene_nodelay_network.node[8].core_layer 	slots_sent[face$o[2]->node[2]] 	2795500
scalar abilene_nodelay_network.node[8].core_layer 	slots_sent[face$o[3]->node[7]] 	2649000
scalar abilene_nodelay_network.node[8].core_layer 	slots_sent[face$o[4]->node[9]] 	3615800
scalar abilene_nodelay_network.node[8].content_store 	p_hit[8] 	0.52189090048515
scalar abilene_nodelay_network.node[8].content_store 	hits[8] 	141136
scalar abilene_nodelay_network.node[8].content_store 	misses[8] 	129296
scalar abilene_nodelay_network.node[8].content_store 	decision_yes[8] 	84427
scalar abilene_nodelay_network.node[8].content_store 	decision_no[8] 	44869
scalar abilene_nodelay_network.node[8].content_store 	decision_ratio[8] 	0.65297456997896
scalar abilene_nodelay_network.node[9].core_layer 	interests[9] 	227116
scalar abilene_nodelay_network.node[9].core_layer 	repo_load[9] 	40627
scalar abilene_nodelay_network.node[9].core_layer 	data[9] 	54430
scalar abilene_nodelay_network.node[9].core_layer 	slots_sent[face$o[1]->client[9]] 	17990700
scalar abilene_nodelay_network.node[9].core_layer 	slots_sent[face$o[2]->node[10]] 	2053800
scalar abilene_nodelay_network.node[9].core_layer 	slots_sent[face$o[3]->node[8]] 	2667100
scalar abilene_nodelay_network.node[9].content_store 	p_hit[9] 	0.58146057521267
scalar abilene_nodelay_network.node[9].content_store 	hits[9] 	132059
scalar abilene_nodelay_network.node[9].content_store 	misses[9] 	95057
scalar abilene_nodelay_network.node[9].content_store 	decision_yes[9] 	54430
scalar abilene_nodelay_network.node[9].content_store 	decision_no[9] 	40627
scalar abilene_nodelay_network.node[9].content_store 	decision_ratio[9] 	0.57260380613737
scalar abilene_nodelay_network.node[10].core_layer 	interests[10] 	225630
scalar abilene_nodelay_network.node[10].core_layer 	repo_load[10] 	42705
scalar abilene_nodelay_network.node[10].core_layer 	data[10] 	49877
scalar abilene_nodelay_network.node[10].core_layer 	slots_sent[face$o[1]->client[10]] 	18040000
scalar abilene_nodelay_network.node[10].core_layer 	slots_sent[face$o[2]->node[0]] 	788600
scalar abilene_nodelay_network.node[10].core_layer 	slots_sent[face$o[3]->node[1]] 	1907200
scalar abilene_nodelay_network.node[10].core_layer 	slots_sent[face$o[4]->node[9]] 	1827200
scalar abilene_nodelay_network.node[10].content_store 	p_hit[10] 	0.58967335903913
scalar abilene_nodelay_network.node[10].content_store 	hits[10] 	133048
scalar abilene_nodelay_network.node[10].content_store 	misses[10] 	92582
scalar abilene_nodelay_network.node[10].content_store 	decision_yes[10] 	49877
scalar abilene_nodelay_network.node[10].content_store 	decision_no[10] 	42705
scalar abilene_nodelay_network.node[10].content_store 	decision_ratio[10] 	0.53873323108164
scalar abilene_nodelay_network.client[0] 	hdistance[0].real 	0.74399822375177
scalar abilene_nodelay_network.client[0] 	downloads[0].real 	180155
scalar abilene_nodelay_network.client[0] 	avg_time[0].real 	0
scalar abilene_nodelay_network.client[1] 	hdistance[1].real 	0.69325620845963
scalar abilene_nodelay_network.client[1] 	downloads[1].real 	179795
scalar abilene_nodelay_network.client[1] 	avg_time[1].real 	0
scalar abilene_nodelay_network.client[2] 	hdistance[2].real 	0.66961738849999
scalar abilene_nodelay_network.client[2] 	downloads[2].real 	179843
scalar abilene_nodelay_network.client[2] 	avg_time[2].real 	0
scalar abilene_nodelay_network.client[3] 	hdistance[3].real 	0.65337071775872
scalar abilene_nodelay_network.client[3] 	downloads[3].real 	179754
scalar abilene_nodelay_network.client[3] 	avg_time[3].real 	0
scalar abilene_nodelay_network.client[4] 	hdistance[4].real 	0.72235993500697
scalar abilene_nodelay_network.client[4] 	downloads[4].real 	180327
scalar abilene_nodelay_network.client[4] 	avg_time[4].real 	0
scalar abilene_nodelay_network.client[5] 	hdistance[5].real 	0.72544508901782
scalar abilene_nodelay_network.client[5] 	downloads[5].real 	179964
scalar abilene_nodelay_network.client[5] 	avg_time[5].real 	0
scalar abilene_nodelay_network.client[6] 	hdistance[6].real 	0.79889273279543
scalar abilene_nodelay_network.client[6] 	downloads[6].real 	180083
scalar abilene_nodelay_network.client[6] 	avg_time[6].real 	0
scalar abilene_nodelay_network.client[7] 	hdistance[7].real 	0.66802102318013
scalar abilene_nodelay_network.client[7] 	downloads[7].real 	179421
scalar abilene_nodelay_network.client[7] 	avg_time[7].real 	0
scalar abilene_nodelay_network.client[8] 	hdistance[8].real 	0.61341051776965
scalar abilene_nodelay_network.client[8] 	downloads[8].real 	179829
scalar abilene_nodelay_network.client[8] 	avg_time[8].real 	0
scalar abilene_nodelay_network.client[9] 	hdistance[9].real 	0.6722917952053
scalar abilene_nodelay_network.client[9] 	downloads[9].real 	179907
scalar abilene_nodelay_network.client[9] 	avg_time[9].real 	0
scalar abilene_nodelay_network.client[10] 	hdistance[10].real 	0.68991685144124
scalar abilene_nodelay_network.client[10] 	downloads[10].real 	180400
scalar abilene_nodelay_network.client[10] 	avg_time[10].real 	0
