version 2
run General-9-20150720-19:03:15-16170
attr C 116667
attr D lce
attr F spr
attr R lru
attr a 1
attr brates 1
attr configname General
attr ctlg 1e6
attr datetime 20150720-19:03:15
attr experiment General
attr inifile omnetpp.ini
attr iterationvars "$net=abilene_nodelay, $rep=4, $lambda=100, $a=1, $ctlg=1e6, $brates=1, $F=spr, $ttl=1000, $D=lce, $R=lru, $C=116667, $window=60, $variance=0.05, $mytime=1800"
attr iterationvars2 "$net=abilene_nodelay, $rep=4, $lambda=100, $a=1, $ctlg=1e6, $brates=1, $F=spr, $ttl=1000, $D=lce, $R=lru, $C=116667, $window=60, $variance=0.05, $mytime=1800, $repetition=0"
attr lambda 100
attr measurement "$net=abilene_nodelay, $rep=4, $lambda=100, $a=1, $ctlg=1e6, $brates=1, $F=spr, $ttl=1000, $D=lce, $R=lru, $C=116667, $window=60, $variance=0.05, $mytime=1800"
attr mytime 1800
attr net abilene_nodelay
attr network networks.${net=abilene_nodelay}_network
attr processid 16170
attr rep 4
attr repetition 0
attr replication #0
attr resultdir results
attr runnumber 9
attr seedset 4
attr ttl 1000
attr variance 0.05
attr window 60

scalar . 	C 	116667
scalar . 	a 	1
scalar . 	brates 	1
scalar . 	ctlg 	1e6
scalar . 	lambda 	100
scalar . 	mytime 	1800
scalar . 	rep 	4
scalar . 	ttl 	1000
scalar . 	variance 	0.05
scalar . 	window 	60
scalar abilene_nodelay_network.content_distribution 	repo-0 	2
scalar abilene_nodelay_network.content_distribution 	repo-1 	0
scalar abilene_nodelay_network.content_distribution 	repo-2 	10
scalar abilene_nodelay_network.content_distribution 	repo-3 	6
scalar abilene_nodelay_network.content_distribution 	repo-4 	4
scalar abilene_nodelay_network.content_distribution 	repo-5 	9
scalar abilene_nodelay_network.content_distribution 	repo-6 	3
scalar abilene_nodelay_network.content_distribution 	repo-7 	5
scalar abilene_nodelay_network.content_distribution 	repo-8 	1
scalar abilene_nodelay_network.content_distribution 	repo-9 	8
scalar abilene_nodelay_network.content_distribution 	repo-10 	7
scalar abilene_nodelay_network.content_distribution 	client-0 	3
scalar abilene_nodelay_network.content_distribution 	client-1 	5
scalar abilene_nodelay_network.content_distribution 	client-2 	8
scalar abilene_nodelay_network.content_distribution 	client-3 	10
scalar abilene_nodelay_network.content_distribution 	client-4 	1
scalar abilene_nodelay_network.content_distribution 	client-5 	7
scalar abilene_nodelay_network.content_distribution 	client-6 	6
scalar abilene_nodelay_network.content_distribution 	client-7 	0
scalar abilene_nodelay_network.content_distribution 	client-8 	4
scalar abilene_nodelay_network.content_distribution 	client-9 	9
scalar abilene_nodelay_network.content_distribution 	client-10 	2
scalar abilene_nodelay_network.content_distribution 	repo-0_card 	90884
scalar abilene_nodelay_network.content_distribution 	repo-0_price 	0
scalar abilene_nodelay_network.content_distribution 	repo-1_card 	90935
scalar abilene_nodelay_network.content_distribution 	repo-1_price 	0
scalar abilene_nodelay_network.content_distribution 	repo-2_card 	91184
scalar abilene_nodelay_network.content_distribution 	repo-2_price 	0
scalar abilene_nodelay_network.content_distribution 	repo-3_card 	90565
scalar abilene_nodelay_network.content_distribution 	repo-3_price 	0
scalar abilene_nodelay_network.content_distribution 	repo-4_card 	90993
scalar abilene_nodelay_network.content_distribution 	repo-4_price 	0
scalar abilene_nodelay_network.content_distribution 	repo-5_card 	90652
scalar abilene_nodelay_network.content_distribution 	repo-5_price 	0
scalar abilene_nodelay_network.content_distribution 	repo-6_card 	91293
scalar abilene_nodelay_network.content_distribution 	repo-6_price 	0
scalar abilene_nodelay_network.content_distribution 	repo-7_card 	90684
scalar abilene_nodelay_network.content_distribution 	repo-7_price 	0
scalar abilene_nodelay_network.content_distribution 	repo-8_card 	90808
scalar abilene_nodelay_network.content_distribution 	repo-8_price 	0
scalar abilene_nodelay_network.content_distribution 	repo-9_card 	90944
scalar abilene_nodelay_network.content_distribution 	repo-9_price 	0
scalar abilene_nodelay_network.content_distribution 	repo-10_card 	91058
scalar abilene_nodelay_network.content_distribution 	repo-10_price 	0
scalar abilene_nodelay_network.statistics 	stabilization_time 	4870.7
scalar abilene_nodelay_network.statistics 	p_hit 	0.5186728245578
scalar abilene_nodelay_network.statistics 	interests 	259967
scalar abilene_nodelay_network.statistics 	data 	79945.181818182
scalar abilene_nodelay_network.statistics 	hdistance 	0.69509701511374
scalar abilene_nodelay_network.statistics 	avg_time 	0
scalar abilene_nodelay_network.statistics 	downloads 	1980240
scalar abilene_nodelay_network.statistics 	total_cost 	0
scalar abilene_nodelay_network.statistics 	total_replicas 	1000000
scalar abilene_nodelay_network.statistics 	"representations_downloaded 1:" 	0
scalar abilene_nodelay_network.statistics 	"slots_per_representation 100:" 	0
scalar abilene_nodelay_network.statistics 	inner_hit 	0.74900820102614
scalar abilene_nodelay_network.statistics 	execution_time 	200
scalar abilene_nodelay_network.node[0].core_layer 	interests[0] 	205787
scalar abilene_nodelay_network.node[0].core_layer 	repo_load[0] 	55394
scalar abilene_nodelay_network.node[0].core_layer 	data[0] 	39305
scalar abilene_nodelay_network.node[0].core_layer 	slots_sent[face$o[1]->client[0]] 	17966500
scalar abilene_nodelay_network.node[0].core_layer 	slots_sent[face$o[2]->node[1]] 	1955400
scalar abilene_nodelay_network.node[0].core_layer 	slots_sent[face$o[3]->node[10]] 	656800
scalar abilene_nodelay_network.node[0].content_store 	p_hit[0] 	0.5398202996302
scalar abilene_nodelay_network.node[0].content_store 	hits[0] 	111088
scalar abilene_nodelay_network.node[0].content_store 	misses[0] 	94699
scalar abilene_nodelay_network.node[0].content_store 	decision_yes[0] 	39305
scalar abilene_nodelay_network.node[0].content_store 	decision_no[0] 	55394
scalar abilene_nodelay_network.node[0].content_store 	decision_ratio[0] 	0.41505190128724
scalar abilene_nodelay_network.node[1].core_layer 	interests[1] 	287864
scalar abilene_nodelay_network.node[1].core_layer 	repo_load[1] 	49687
scalar abilene_nodelay_network.node[1].core_layer 	data[1] 	101864
scalar abilene_nodelay_network.node[1].core_layer 	slots_sent[face$o[1]->client[1]] 	17966200
scalar abilene_nodelay_network.node[1].core_layer 	slots_sent[face$o[2]->node[0]] 	3148200
scalar abilene_nodelay_network.node[1].core_layer 	slots_sent[face$o[3]->node[10]] 	2276600
scalar abilene_nodelay_network.node[1].core_layer 	slots_sent[face$o[4]->node[2]] 	5395400
scalar abilene_nodelay_network.node[1].content_store 	p_hit[1] 	0.47353264041353
scalar abilene_nodelay_network.node[1].content_store 	hits[1] 	136313
scalar abilene_nodelay_network.node[1].content_store 	misses[1] 	151551
scalar abilene_nodelay_network.node[1].content_store 	decision_yes[1] 	101864
scalar abilene_nodelay_network.node[1].content_store 	decision_no[1] 	49687
scalar abilene_nodelay_network.node[1].content_store 	decision_ratio[1] 	0.67214337087845
scalar abilene_nodelay_network.node[2].core_layer 	interests[2] 	348509
scalar abilene_nodelay_network.node[2].core_layer 	repo_load[2] 	46578
scalar abilene_nodelay_network.node[2].core_layer 	data[2] 	152827
scalar abilene_nodelay_network.node[2].core_layer 	slots_sent[face$o[1]->client[2]] 	18007600
scalar abilene_nodelay_network.node[2].core_layer 	slots_sent[face$o[2]->node[1]] 	6295900
scalar abilene_nodelay_network.node[2].core_layer 	slots_sent[face$o[3]->node[3]] 	7364100
scalar abilene_nodelay_network.node[2].core_layer 	slots_sent[face$o[4]->node[8]] 	3183300
scalar abilene_nodelay_network.node[2].content_store 	p_hit[2] 	0.42783400141747
scalar abilene_nodelay_network.node[2].content_store 	hits[2] 	149104
scalar abilene_nodelay_network.node[2].content_store 	misses[2] 	199405
scalar abilene_nodelay_network.node[2].content_store 	decision_yes[2] 	152827
scalar abilene_nodelay_network.node[2].content_store 	decision_no[2] 	46578
scalar abilene_nodelay_network.node[2].content_store 	decision_ratio[2] 	0.76641508487751
scalar abilene_nodelay_network.node[3].core_layer 	interests[3] 	333746
scalar abilene_nodelay_network.node[3].core_layer 	repo_load[3] 	45959
scalar abilene_nodelay_network.node[3].core_layer 	data[3] 	140344
scalar abilene_nodelay_network.node[3].core_layer 	slots_sent[face$o[1]->client[3]] 	18022100
scalar abilene_nodelay_network.node[3].core_layer 	slots_sent[face$o[2]->node[2]] 	7100900
scalar abilene_nodelay_network.node[3].core_layer 	slots_sent[face$o[3]->node[4]] 	4782300
scalar abilene_nodelay_network.node[3].core_layer 	slots_sent[face$o[4]->node[7]] 	3469300
scalar abilene_nodelay_network.node[3].content_store 	p_hit[3] 	0.44178207379264
scalar abilene_nodelay_network.node[3].content_store 	hits[3] 	147443
scalar abilene_nodelay_network.node[3].content_store 	misses[3] 	186303
scalar abilene_nodelay_network.node[3].content_store 	decision_yes[3] 	140344
scalar abilene_nodelay_network.node[3].content_store 	decision_no[3] 	45959
scalar abilene_nodelay_network.node[3].content_store 	decision_ratio[3] 	0.75331046735694
scalar abilene_nodelay_network.node[4].core_layer 	interests[4] 	244112
scalar abilene_nodelay_network.node[4].core_layer 	repo_load[4] 	43315
scalar abilene_nodelay_network.node[4].core_layer 	data[4] 	66013
scalar abilene_nodelay_network.node[4].core_layer 	slots_sent[face$o[1]->client[4]] 	18068700
scalar abilene_nodelay_network.node[4].core_layer 	slots_sent[face$o[2]->node[3]] 	3678600
scalar abilene_nodelay_network.node[4].core_layer 	slots_sent[face$o[3]->node[5]] 	2663900
scalar abilene_nodelay_network.node[4].content_store 	p_hit[4] 	0.55214000131087
scalar abilene_nodelay_network.node[4].content_store 	hits[4] 	134784
scalar abilene_nodelay_network.node[4].content_store 	misses[4] 	109328
scalar abilene_nodelay_network.node[4].content_store 	decision_yes[4] 	66013
scalar abilene_nodelay_network.node[4].content_store 	decision_no[4] 	43315
scalar abilene_nodelay_network.node[4].content_store 	decision_ratio[4] 	0.60380689301917
scalar abilene_nodelay_network.node[5].core_layer 	interests[5] 	212472
scalar abilene_nodelay_network.node[5].core_layer 	repo_load[5] 	37464
scalar abilene_nodelay_network.node[5].core_layer 	data[5] 	45097
scalar abilene_nodelay_network.node[5].core_layer 	slots_sent[face$o[1]->client[5]] 	17986700
scalar abilene_nodelay_network.node[5].core_layer 	slots_sent[face$o[2]->node[4]] 	1819000
scalar abilene_nodelay_network.node[5].core_layer 	slots_sent[face$o[3]->node[6]] 	1441500
scalar abilene_nodelay_network.node[5].content_store 	p_hit[5] 	0.61142644677887
scalar abilene_nodelay_network.node[5].content_store 	hits[5] 	129911
scalar abilene_nodelay_network.node[5].content_store 	misses[5] 	82561
scalar abilene_nodelay_network.node[5].content_store 	decision_yes[5] 	45097
scalar abilene_nodelay_network.node[5].content_store 	decision_no[5] 	37464
scalar abilene_nodelay_network.node[5].content_store 	decision_ratio[5] 	0.546226426521
scalar abilene_nodelay_network.node[6].core_layer 	interests[6] 	228057
scalar abilene_nodelay_network.node[6].core_layer 	repo_load[6] 	38278
scalar abilene_nodelay_network.node[6].core_layer 	data[6] 	54424
scalar abilene_nodelay_network.node[6].core_layer 	slots_sent[face$o[1]->client[6]] 	18089100
scalar abilene_nodelay_network.node[6].core_layer 	slots_sent[face$o[2]->node[5]] 	1845800
scalar abilene_nodelay_network.node[6].core_layer 	slots_sent[face$o[3]->node[7]] 	2870800
scalar abilene_nodelay_network.node[6].content_store 	p_hit[6] 	0.5935139022262
scalar abilene_nodelay_network.node[6].content_store 	hits[6] 	135355
scalar abilene_nodelay_network.node[6].content_store 	misses[6] 	92702
scalar abilene_nodelay_network.node[6].content_store 	decision_yes[6] 	54424
scalar abilene_nodelay_network.node[6].content_store 	decision_no[6] 	38278
scalar abilene_nodelay_network.node[6].content_store 	decision_ratio[6] 	0.58708549977347
scalar abilene_nodelay_network.node[7].core_layer 	interests[7] 	276397
scalar abilene_nodelay_network.node[7].core_layer 	repo_load[7] 	46773
scalar abilene_nodelay_network.node[7].core_layer 	data[7] 	90005
scalar abilene_nodelay_network.node[7].core_layer 	slots_sent[face$o[1]->client[7]] 	17998100
scalar abilene_nodelay_network.node[7].core_layer 	slots_sent[face$o[2]->node[3]] 	2991700
scalar abilene_nodelay_network.node[7].core_layer 	slots_sent[face$o[3]->node[6]] 	4000900
scalar abilene_nodelay_network.node[7].core_layer 	slots_sent[face$o[4]->node[8]] 	2649000
scalar abilene_nodelay_network.node[7].content_store 	p_hit[7] 	0.5051393466644
scalar abilene_nodelay_network.node[7].content_store 	hits[7] 	139619
scalar abilene_nodelay_network.node[7].content_store 	misses[7] 	136778
scalar abilene_nodelay_network.node[7].content_store 	decision_yes[7] 	90005
scalar abilene_nodelay_network.node[7].content_store 	decision_no[7] 	46773
scalar abilene_nodelay_network.node[7].content_store 	decision_ratio[7] 	0.65803711123134
scalar abilene_nodelay_network.node[8].core_layer 	interests[8] 	270667
scalar abilene_nodelay_network.node[8].core_layer 	repo_load[8] 	48802
scalar abilene_nodelay_network.node[8].core_layer 	data[8] 	85118
scalar abilene_nodelay_network.node[8].core_layer 	slots_sent[face$o[1]->client[8]] 	17992900
scalar abilene_nodelay_network.node[8].core_layer 	slots_sent[face$o[2]->node[2]] 	2786400
scalar abilene_nodelay_network.node[8].core_layer 	slots_sent[face$o[3]->node[7]] 	2660400
scalar abilene_nodelay_network.node[8].core_layer 	slots_sent[face$o[4]->node[9]] 	3627000
scalar abilene_nodelay_network.node[8].content_store 	p_hit[8] 	0.50522228420901
scalar abilene_nodelay_network.node[8].content_store 	hits[8] 	136747
scalar abilene_nodelay_network.node[8].content_store 	misses[8] 	133920
scalar abilene_nodelay_network.node[8].content_store 	decision_yes[8] 	85118
scalar abilene_nodelay_network.node[8].content_store 	decision_no[8] 	48802
scalar abilene_nodelay_network.node[8].content_store 	decision_ratio[8] 	0.63558841099164
scalar abilene_nodelay_network.node[9].core_layer 	interests[9] 	226699
scalar abilene_nodelay_network.node[9].core_layer 	repo_load[9] 	43902
scalar abilene_nodelay_network.node[9].core_layer 	data[9] 	54623
scalar abilene_nodelay_network.node[9].core_layer 	slots_sent[face$o[1]->client[9]] 	17946100
scalar abilene_nodelay_network.node[9].core_layer 	slots_sent[face$o[2]->node[10]] 	2044300
scalar abilene_nodelay_network.node[9].core_layer 	slots_sent[face$o[3]->node[8]] 	2679500
scalar abilene_nodelay_network.node[9].content_store 	p_hit[9] 	0.56539287778067
scalar abilene_nodelay_network.node[9].content_store 	hits[9] 	128174
scalar abilene_nodelay_network.node[9].content_store 	misses[9] 	98525
scalar abilene_nodelay_network.node[9].content_store 	decision_yes[9] 	54623
scalar abilene_nodelay_network.node[9].content_store 	decision_no[9] 	43902
scalar abilene_nodelay_network.node[9].content_store 	decision_ratio[9] 	0.55440751078406
scalar abilene_nodelay_network.node[10].core_layer 	interests[10] 	225327
scalar abilene_nodelay_network.node[10].core_layer 	repo_load[10] 	40872
scalar abilene_nodelay_network.node[10].core_layer 	data[10] 	49777
scalar abilene_nodelay_network.node[10].core_layer 	slots_sent[face$o[1]->client[10]] 	17980000
scalar abilene_nodelay_network.node[10].core_layer 	slots_sent[face$o[2]->node[0]] 	782300
scalar abilene_nodelay_network.node[10].core_layer 	slots_sent[face$o[3]->node[1]] 	1935100
scalar abilene_nodelay_network.node[10].core_layer 	slots_sent[face$o[4]->node[9]] 	1835300
scalar abilene_nodelay_network.node[10].content_store 	p_hit[10] 	0.59770023121952
scalar abilene_nodelay_network.node[10].content_store 	hits[10] 	134678
scalar abilene_nodelay_network.node[10].content_store 	misses[10] 	90649
scalar abilene_nodelay_network.node[10].content_store 	decision_yes[10] 	49777
scalar abilene_nodelay_network.node[10].content_store 	decision_no[10] 	40872
scalar abilene_nodelay_network.node[10].content_store 	decision_ratio[10] 	0.54911802667432
scalar abilene_nodelay_network.client[0] 	hdistance[0].real 	0.81925249770406
scalar abilene_nodelay_network.client[0] 	downloads[0].real 	179665
scalar abilene_nodelay_network.client[0] 	avg_time[0].real 	0
scalar abilene_nodelay_network.client[1] 	hdistance[1].real 	0.72700960692856
scalar abilene_nodelay_network.client[1] 	downloads[1].real 	179662
scalar abilene_nodelay_network.client[1] 	avg_time[1].real 	0
scalar abilene_nodelay_network.client[2] 	hdistance[2].real 	0.64209000644173
scalar abilene_nodelay_network.client[2] 	downloads[2].real 	180076
scalar abilene_nodelay_network.client[2] 	avg_time[2].real 	0
scalar abilene_nodelay_network.client[3] 	hdistance[3].real 	0.65512343178653
scalar abilene_nodelay_network.client[3] 	downloads[3].real 	180221
scalar abilene_nodelay_network.client[3] 	avg_time[3].real 	0
scalar abilene_nodelay_network.client[4] 	hdistance[4].real 	0.72450148599513
scalar abilene_nodelay_network.client[4] 	downloads[4].real 	180687
scalar abilene_nodelay_network.client[4] 	avg_time[4].real 	0
scalar abilene_nodelay_network.client[5] 	hdistance[5].real 	0.72937781805444
scalar abilene_nodelay_network.client[5] 	downloads[5].real 	179867
scalar abilene_nodelay_network.client[5] 	avg_time[5].real 	0
scalar abilene_nodelay_network.client[6] 	hdistance[6].real 	0.69816077085096
scalar abilene_nodelay_network.client[6] 	downloads[6].real 	180891
scalar abilene_nodelay_network.client[6] 	avg_time[6].real 	0
scalar abilene_nodelay_network.client[7] 	hdistance[7].real 	0.64232891249632
scalar abilene_nodelay_network.client[7] 	downloads[7].real 	179981
scalar abilene_nodelay_network.client[7] 	avg_time[7].real 	0
scalar abilene_nodelay_network.client[8] 	hdistance[8].real 	0.63575076835864
scalar abilene_nodelay_network.client[8] 	downloads[8].real 	179929
scalar abilene_nodelay_network.client[8] 	avg_time[8].real 	0
scalar abilene_nodelay_network.client[9] 	hdistance[9].real 	0.69451858621093
scalar abilene_nodelay_network.client[9] 	downloads[9].real 	179461
scalar abilene_nodelay_network.client[9] 	avg_time[9].real 	0
scalar abilene_nodelay_network.client[10] 	hdistance[10].real 	0.6779532814238
scalar abilene_nodelay_network.client[10] 	downloads[10].real 	179800
scalar abilene_nodelay_network.client[10] 	avg_time[10].real 	0
