version 2
run General-0-20141007-11:38:16-22053
attr D costaware0.5
attr F spr
attr R lru
attr a 1
attr configname General
attr csize 1e3
attr ctlg 1e5
attr datetime 20141007-11:38:16
attr experiment General
attr inifile omnetpp.ini
attr iterationvars "$net=abilene_cost, $rep=3, $priceratiovalue=10, $weights=0.333_0.333_0.334, $lambda=100, $a=1, $ctlg=1e5, $F=spr, $ttl=10, $D=costaware0.5, $xi=1, $R=lru, $csize=1e3, $pricebits=0, $window=60, $variance=0.05, $mytime=1800"
attr iterationvars2 "$net=abilene_cost, $rep=3, $priceratiovalue=10, $weights=0.333_0.333_0.334, $lambda=100, $a=1, $ctlg=1e5, $F=spr, $ttl=10, $D=costaware0.5, $xi=1, $R=lru, $csize=1e3, $pricebits=0, $window=60, $variance=0.05, $mytime=1800, $repetition=0"
attr lambda 100
attr measurement "$net=abilene_cost, $rep=3, $priceratiovalue=10, $weights=0.333_0.333_0.334, $lambda=100, $a=1, $ctlg=1e5, $F=spr, $ttl=10, $D=costaware0.5, $xi=1, $R=lru, $csize=1e3, $pricebits=0, $window=60, $variance=0.05, $mytime=1800"
attr mytime 1800
attr net abilene_cost
attr network networks.${net=abilene_cost,geant_cost}_network
attr pricebits 0
attr priceratiovalue 10
attr processid 22053
attr rep 3
attr repetition 0
attr replication #0
attr resultdir results
attr runnumber 0
attr seedset 3
attr ttl 10
attr variance 0.05
attr weights 0.333_0.333_0.334
attr window 60
attr xi 1

scalar . 	a 	1
scalar . 	csize 	1e3
scalar . 	ctlg 	1e5
scalar . 	lambda 	100
scalar . 	mytime 	1800
scalar . 	pricebits 	0
scalar . 	priceratiovalue 	10
scalar . 	rep 	3
scalar . 	ttl 	10
scalar . 	variance 	0.05
scalar . 	window 	60
scalar . 	xi 	1
scalar abilene_cost_network.content_distribution 	repo-0 	9
scalar abilene_cost_network.content_distribution 	repo-1 	4
scalar abilene_cost_network.content_distribution 	repo-2 	0
scalar abilene_cost_network.content_distribution 	client-0 	9
scalar abilene_cost_network.content_distribution 	client-1 	0
scalar abilene_cost_network.content_distribution 	client-2 	1
scalar abilene_cost_network.content_distribution 	repo-0_card 	33498
scalar abilene_cost_network.content_distribution 	repo-0_price 	0
scalar abilene_cost_network.content_distribution 	repo-1_card 	33168
scalar abilene_cost_network.content_distribution 	repo-1_price 	10
scalar abilene_cost_network.content_distribution 	repo-2_card 	33334
scalar abilene_cost_network.content_distribution 	repo-2_price 	1
scalar abilene_cost_network.statistics 	repo_popularity[0] 	0.34820484875244
scalar abilene_cost_network.statistics 	repo_popularity[1] 	0.25519349814637
scalar abilene_cost_network.statistics 	repo_popularity[2] 	0.3966016531012
scalar abilene_cost_network.statistics 	stabilization_time 	36060
scalar abilene_cost_network.statistics 	p_hit 	0.097754351481123
scalar abilene_cost_network.statistics 	interests 	123766.63636364
scalar abilene_cost_network.statistics 	data 	74767.363636364
scalar abilene_cost_network.statistics 	hdistance 	2.2861350805962
scalar abilene_cost_network.statistics 	avg_time 	0.009568856383
scalar abilene_cost_network.statistics 	downloads 	536270
scalar abilene_cost_network.statistics 	total_cost 	1187634
scalar abilene_cost_network.statistics 	total_replicas 	100000
scalar abilene_cost_network.statistics 	inner_hit 	0.2487179965316
scalar abilene_cost_network.node[0].core_layer 	interests[0] 	280553
scalar abilene_cost_network.node[0].core_layer 	repo_load[0] 	109194
scalar abilene_cost_network.node[0].core_layer 	data[0] 	103269
scalar abilene_cost_network.node[0].core_layer 	repo_int[0] 	402890
scalar abilene_cost_network.node[0].content_store 	p_hit[0] 	0.24112734492235
scalar abilene_cost_network.node[0].content_store 	hits[0] 	67649
scalar abilene_cost_network.node[0].content_store 	misses[0] 	212904
scalar abilene_cost_network.node[0].content_store 	decision_yes[0] 	50592
scalar abilene_cost_network.node[0].content_store 	decision_no[0] 	161871
scalar abilene_cost_network.node[0].content_store 	decision_ratio[0] 	0.23812146114853
scalar abilene_cost_network.node[0].content_store 	correction_factor[0] 	0.13612850530901
scalar abilene_cost_network.node[0].content_store 	kappa[0] 	1
scalar abilene_cost_network.node[1].core_layer 	interests[1] 	221229
scalar abilene_cost_network.node[1].core_layer 	data[1] 	193309
scalar abilene_cost_network.node[1].content_store 	p_hit[1] 	0.12179687111545
scalar abilene_cost_network.node[1].content_store 	hits[1] 	26945
scalar abilene_cost_network.node[1].content_store 	misses[1] 	194284
scalar abilene_cost_network.node[1].content_store 	decision_yes[1] 	77717
scalar abilene_cost_network.node[1].content_store 	decision_no[1] 	115592
scalar abilene_cost_network.node[1].content_store 	decision_ratio[1] 	0.40203508372606
scalar abilene_cost_network.node[1].content_store 	correction_factor[1] 	0.13612850530901
scalar abilene_cost_network.node[1].content_store 	kappa[1] 	1
scalar abilene_cost_network.node[2].core_layer 	interests[2] 	114140
scalar abilene_cost_network.node[2].core_layer 	data[2] 	107980
scalar abilene_cost_network.node[2].content_store 	p_hit[2] 	0.053776064482215
scalar abilene_cost_network.node[2].content_store 	hits[2] 	6138
scalar abilene_cost_network.node[2].content_store 	misses[2] 	108002
scalar abilene_cost_network.node[2].content_store 	decision_yes[2] 	107842
scalar abilene_cost_network.node[2].content_store 	decision_no[2] 	138
scalar abilene_cost_network.node[2].content_store 	decision_ratio[2] 	0.99872198555288
scalar abilene_cost_network.node[2].content_store 	correction_factor[2] 	0.13612850530901
scalar abilene_cost_network.node[2].content_store 	kappa[2] 	1
scalar abilene_cost_network.node[3].core_layer 	interests[3] 	107981
scalar abilene_cost_network.node[3].core_layer 	data[3] 	107846
scalar abilene_cost_network.node[3].content_store 	p_hit[3] 	0.0012594808345913
scalar abilene_cost_network.node[3].content_store 	hits[3] 	136
scalar abilene_cost_network.node[3].content_store 	misses[3] 	107845
scalar abilene_cost_network.node[3].content_store 	decision_yes[3] 	107844
scalar abilene_cost_network.node[3].content_store 	decision_no[3] 	2
scalar abilene_cost_network.node[3].content_store 	decision_ratio[3] 	0.99998145503774
scalar abilene_cost_network.node[3].content_store 	correction_factor[3] 	0.13612850530901
scalar abilene_cost_network.node[3].content_store 	kappa[3] 	1
scalar abilene_cost_network.node[4].core_layer 	interests[4] 	107846
scalar abilene_cost_network.node[4].core_layer 	repo_load[4] 	107844
scalar abilene_cost_network.node[4].core_layer 	data[4] 	0
scalar abilene_cost_network.node[4].content_store 	p_hit[4] 	1.8544962261002e-05
scalar abilene_cost_network.node[4].content_store 	hits[4] 	2
scalar abilene_cost_network.node[4].content_store 	misses[4] 	107844
scalar abilene_cost_network.node[4].content_store 	decision_yes[4] 	107844
scalar abilene_cost_network.node[4].content_store 	decision_no[4] 	0
scalar abilene_cost_network.node[4].content_store 	decision_ratio[4] 	1
scalar abilene_cost_network.node[4].content_store 	correction_factor[4] 	0.13612850530901
scalar abilene_cost_network.node[4].content_store 	kappa[4] 	1
scalar abilene_cost_network.node[5].core_layer 	interests[5] 	0
scalar abilene_cost_network.node[5].core_layer 	data[5] 	0
scalar abilene_cost_network.node[5].content_store 	p_hit[5] 	-nan
scalar abilene_cost_network.node[5].content_store 	hits[5] 	0
scalar abilene_cost_network.node[5].content_store 	misses[5] 	0
scalar abilene_cost_network.node[5].content_store 	decision_yes[5] 	0
scalar abilene_cost_network.node[5].content_store 	decision_no[5] 	0
scalar abilene_cost_network.node[5].content_store 	decision_ratio[5] 	0
scalar abilene_cost_network.node[5].content_store 	correction_factor[5] 	0.13612850530901
scalar abilene_cost_network.node[5].content_store 	kappa[5] 	1
scalar abilene_cost_network.node[6].core_layer 	interests[6] 	0
scalar abilene_cost_network.node[6].core_layer 	data[6] 	0
scalar abilene_cost_network.node[6].content_store 	p_hit[6] 	-nan
scalar abilene_cost_network.node[6].content_store 	hits[6] 	0
scalar abilene_cost_network.node[6].content_store 	misses[6] 	0
scalar abilene_cost_network.node[6].content_store 	decision_yes[6] 	0
scalar abilene_cost_network.node[6].content_store 	decision_no[6] 	0
scalar abilene_cost_network.node[6].content_store 	decision_ratio[6] 	0
scalar abilene_cost_network.node[6].content_store 	correction_factor[6] 	0.13612850530901
scalar abilene_cost_network.node[6].content_store 	kappa[6] 	1
scalar abilene_cost_network.node[7].core_layer 	interests[7] 	0
scalar abilene_cost_network.node[7].core_layer 	data[7] 	0
scalar abilene_cost_network.node[7].content_store 	p_hit[7] 	-nan
scalar abilene_cost_network.node[7].content_store 	hits[7] 	0
scalar abilene_cost_network.node[7].content_store 	misses[7] 	0
scalar abilene_cost_network.node[7].content_store 	decision_yes[7] 	0
scalar abilene_cost_network.node[7].content_store 	decision_no[7] 	0
scalar abilene_cost_network.node[7].content_store 	decision_ratio[7] 	0
scalar abilene_cost_network.node[7].content_store 	correction_factor[7] 	0.13612850530901
scalar abilene_cost_network.node[7].content_store 	kappa[7] 	1
scalar abilene_cost_network.node[8].core_layer 	interests[8] 	39120
scalar abilene_cost_network.node[8].core_layer 	data[8] 	38144
scalar abilene_cost_network.node[8].content_store 	p_hit[8] 	0.024948875255624
scalar abilene_cost_network.node[8].content_store 	hits[8] 	976
scalar abilene_cost_network.node[8].content_store 	misses[8] 	38144
scalar abilene_cost_network.node[8].content_store 	decision_yes[8] 	35401
scalar abilene_cost_network.node[8].content_store 	decision_no[8] 	2743
scalar abilene_cost_network.node[8].content_store 	decision_ratio[8] 	0.92808829697987
scalar abilene_cost_network.node[8].content_store 	correction_factor[8] 	0.13612850530901
scalar abilene_cost_network.node[8].content_store 	kappa[8] 	1
scalar abilene_cost_network.node[9].core_layer 	interests[9] 	303747
scalar abilene_cost_network.node[9].core_layer 	repo_load[9] 	185852
scalar abilene_cost_network.node[9].core_layer 	data[9] 	102050
scalar abilene_cost_network.node[9].content_store 	p_hit[9] 	0.047779895768518
scalar abilene_cost_network.node[9].content_store 	hits[9] 	14513
scalar abilene_cost_network.node[9].content_store 	misses[9] 	289234
scalar abilene_cost_network.node[9].content_store 	decision_yes[9] 	39732
scalar abilene_cost_network.node[9].content_store 	decision_no[9] 	248170
scalar abilene_cost_network.node[9].content_store 	decision_ratio[9] 	0.13800529346792
scalar abilene_cost_network.node[9].content_store 	correction_factor[9] 	0.13612850530901
scalar abilene_cost_network.node[9].content_store 	kappa[9] 	1
scalar abilene_cost_network.node[10].core_layer 	interests[10] 	186817
scalar abilene_cost_network.node[10].core_layer 	data[10] 	169843
scalar abilene_cost_network.node[10].content_store 	p_hit[10] 	0.089536819454332
scalar abilene_cost_network.node[10].content_store 	hits[10] 	16727
scalar abilene_cost_network.node[10].content_store 	misses[10] 	170090
scalar abilene_cost_network.node[10].content_store 	decision_yes[10] 	4418
scalar abilene_cost_network.node[10].content_store 	decision_no[10] 	165425
scalar abilene_cost_network.node[10].content_store 	decision_ratio[10] 	0.026012258379798
scalar abilene_cost_network.node[10].content_store 	correction_factor[10] 	0.13612850530901
scalar abilene_cost_network.node[10].content_store 	kappa[10] 	1
scalar abilene_cost_network.client[0] 	hdistance[0] 	2.2956733862621
scalar abilene_cost_network.client[0] 	downloads[0] 	178731
scalar abilene_cost_network.client[0] 	avg_time[0] 	0.008899426664
scalar abilene_cost_network.client[1] 	hdistance[1] 	2.398861068224
scalar abilene_cost_network.client[1] 	downloads[1] 	178764
scalar abilene_cost_network.client[1] 	avg_time[1] 	0.010668914593
scalar abilene_cost_network.client[9] 	hdistance[9] 	2.1638707873024
scalar abilene_cost_network.client[9] 	downloads[9] 	178775
scalar abilene_cost_network.client[9] 	avg_time[9] 	0.009138227894
