version 2
run General-0-20141007-10:46:32-426
attr D costaware0.5
attr F spr
attr R lru
attr a 1
attr configname General
attr csize 1e3
attr ctlg 1e5
attr datetime 20141007-10:46:32
attr experiment General
attr inifile omnetpp.ini
attr iterationvars "$net=abilene_cost, $rep=4, $priceratiovalue=10, $weights=0.333_0.333_0.334, $lambda=100, $a=1, $ctlg=1e5, $F=spr, $ttl=10, $D=costaware0.5, $xi=1, $R=lru, $csize=1e3, $pricebits=0, $window=60, $variance=0.05, $mytime=1800"
attr iterationvars2 "$net=abilene_cost, $rep=4, $priceratiovalue=10, $weights=0.333_0.333_0.334, $lambda=100, $a=1, $ctlg=1e5, $F=spr, $ttl=10, $D=costaware0.5, $xi=1, $R=lru, $csize=1e3, $pricebits=0, $window=60, $variance=0.05, $mytime=1800, $repetition=0"
attr lambda 100
attr measurement "$net=abilene_cost, $rep=4, $priceratiovalue=10, $weights=0.333_0.333_0.334, $lambda=100, $a=1, $ctlg=1e5, $F=spr, $ttl=10, $D=costaware0.5, $xi=1, $R=lru, $csize=1e3, $pricebits=0, $window=60, $variance=0.05, $mytime=1800"
attr mytime 1800
attr net abilene_cost
attr network networks.${net=abilene_cost,geant_cost}_network
attr pricebits 0
attr priceratiovalue 10
attr processid 426
attr rep 4
attr repetition 0
attr replication #0
attr resultdir results
attr runnumber 0
attr seedset 4
attr ttl 10
attr variance 0.05
attr weights 0.333_0.333_0.334
attr window 60
attr xi 1

scalar . 	a 	1
scalar . 	csize 	1e3
scalar . 	ctlg 	1e5
scalar . 	lambda 	100
scalar . 	mytime 	1800
scalar . 	pricebits 	0
scalar . 	priceratiovalue 	10
scalar . 	rep 	4
scalar . 	ttl 	10
scalar . 	variance 	0.05
scalar . 	window 	60
scalar . 	xi 	1
scalar abilene_cost_network.content_distribution 	repo-0 	2
scalar abilene_cost_network.content_distribution 	repo-1 	0
scalar abilene_cost_network.content_distribution 	repo-2 	10
scalar abilene_cost_network.content_distribution 	client-0 	6
scalar abilene_cost_network.content_distribution 	client-1 	2
scalar abilene_cost_network.content_distribution 	client-2 	4
scalar abilene_cost_network.content_distribution 	repo-0_card 	33274
scalar abilene_cost_network.content_distribution 	repo-0_price 	0
scalar abilene_cost_network.content_distribution 	repo-1_card 	33153
scalar abilene_cost_network.content_distribution 	repo-1_price 	1
scalar abilene_cost_network.content_distribution 	repo-2_card 	33573
scalar abilene_cost_network.content_distribution 	repo-2_price 	10
scalar abilene_cost_network.statistics 	repo_popularity[0] 	0.33945880017902
scalar abilene_cost_network.statistics 	repo_popularity[1] 	0.30988277584688
scalar abilene_cost_network.statistics 	repo_popularity[2] 	0.35065842397411
scalar abilene_cost_network.statistics 	stabilization_time 	36060
scalar abilene_cost_network.statistics 	p_hit 	0.082119377455537
scalar abilene_cost_network.statistics 	interests 	166460.54545455
scalar abilene_cost_network.statistics 	data 	117369.72727273
scalar abilene_cost_network.statistics 	hdistance 	3.1407008372206
scalar abilene_cost_network.statistics 	avg_time 	0.014790126433
scalar abilene_cost_network.statistics 	downloads 	535778
scalar abilene_cost_network.statistics 	total_cost 	1163183
scalar abilene_cost_network.statistics 	total_replicas 	100000
scalar abilene_cost_network.statistics 	inner_hit 	0.28639847100851
scalar abilene_cost_network.node[0].core_layer 	interests[0] 	159942
scalar abilene_cost_network.node[0].core_layer 	repo_load[0] 	95513
scalar abilene_cost_network.node[0].core_layer 	data[0] 	0
scalar abilene_cost_network.node[0].core_layer 	repo_int[0] 	382332
scalar abilene_cost_network.node[0].content_store 	p_hit[0] 	0.40282727488715
scalar abilene_cost_network.node[0].content_store 	hits[0] 	64429
scalar abilene_cost_network.node[0].content_store 	misses[0] 	95513
scalar abilene_cost_network.node[0].content_store 	decision_yes[0] 	13051
scalar abilene_cost_network.node[0].content_store 	decision_no[0] 	82462
scalar abilene_cost_network.node[0].content_store 	decision_ratio[0] 	0.13664108550668
scalar abilene_cost_network.node[0].content_store 	correction_factor[0] 	0.13612850530901
scalar abilene_cost_network.node[0].content_store 	kappa[0] 	1
scalar abilene_cost_network.node[1].core_layer 	interests[1] 	236406
scalar abilene_cost_network.node[1].core_layer 	data[1] 	234805
scalar abilene_cost_network.node[1].content_store 	p_hit[1] 	0.0067764777543717
scalar abilene_cost_network.node[1].content_store 	hits[1] 	1602
scalar abilene_cost_network.node[1].content_store 	misses[1] 	234804
scalar abilene_cost_network.node[1].content_store 	decision_yes[1] 	84365
scalar abilene_cost_network.node[1].content_store 	decision_no[1] 	150440
scalar abilene_cost_network.node[1].content_store 	decision_ratio[1] 	0.35929814101063
scalar abilene_cost_network.node[1].content_store 	correction_factor[1] 	0.13612850530901
scalar abilene_cost_network.node[1].content_store 	kappa[1] 	1
scalar abilene_cost_network.node[2].core_layer 	interests[2] 	455084
scalar abilene_cost_network.node[2].core_layer 	repo_load[2] 	180052
scalar abilene_cost_network.node[2].core_layer 	data[2] 	236407
scalar abilene_cost_network.node[2].content_store 	p_hit[2] 	0.081384975081523
scalar abilene_cost_network.node[2].content_store 	hits[2] 	37037
scalar abilene_cost_network.node[2].content_store 	misses[2] 	418047
scalar abilene_cost_network.node[2].content_store 	decision_yes[2] 	84479
scalar abilene_cost_network.node[2].content_store 	decision_no[2] 	331980
scalar abilene_cost_network.node[2].content_store 	decision_ratio[2] 	0.20285070078927
scalar abilene_cost_network.node[2].content_store 	correction_factor[2] 	0.13612850530901
scalar abilene_cost_network.node[2].content_store 	kappa[2] 	1
scalar abilene_cost_network.node[3].core_layer 	interests[3] 	278092
scalar abilene_cost_network.node[3].core_layer 	data[3] 	275182
scalar abilene_cost_network.node[3].content_store 	p_hit[3] 	0.0038872027961969
scalar abilene_cost_network.node[3].content_store 	hits[3] 	1081
scalar abilene_cost_network.node[3].content_store 	misses[3] 	277011
scalar abilene_cost_network.node[3].content_store 	decision_yes[3] 	43376
scalar abilene_cost_network.node[3].content_store 	decision_no[3] 	231806
scalar abilene_cost_network.node[3].content_store 	decision_ratio[3] 	0.15762658894841
scalar abilene_cost_network.node[3].content_store 	correction_factor[3] 	0.13612850530901
scalar abilene_cost_network.node[3].content_store 	kappa[3] 	1
scalar abilene_cost_network.node[4].core_layer 	interests[4] 	180072
scalar abilene_cost_network.node[4].core_layer 	data[4] 	163922
scalar abilene_cost_network.node[4].content_store 	p_hit[4] 	0.081606246390333
scalar abilene_cost_network.node[4].content_store 	hits[4] 	14695
scalar abilene_cost_network.node[4].content_store 	misses[4] 	165377
scalar abilene_cost_network.node[4].content_store 	decision_yes[4] 	39002
scalar abilene_cost_network.node[4].content_store 	decision_no[4] 	124920
scalar abilene_cost_network.node[4].content_store 	decision_ratio[4] 	0.23793023511182
scalar abilene_cost_network.node[4].content_store 	correction_factor[4] 	0.13612850530901
scalar abilene_cost_network.node[4].content_store 	kappa[4] 	1
scalar abilene_cost_network.node[5].core_layer 	interests[5] 	0
scalar abilene_cost_network.node[5].core_layer 	data[5] 	0
scalar abilene_cost_network.node[5].content_store 	p_hit[5] 	-nan
scalar abilene_cost_network.node[5].content_store 	hits[5] 	0
scalar abilene_cost_network.node[5].content_store 	misses[5] 	0
scalar abilene_cost_network.node[5].content_store 	decision_yes[5] 	0
scalar abilene_cost_network.node[5].content_store 	decision_no[5] 	0
scalar abilene_cost_network.node[5].content_store 	decision_ratio[5] 	0
scalar abilene_cost_network.node[5].content_store 	correction_factor[5] 	0.13612850530901
scalar abilene_cost_network.node[5].content_store 	kappa[5] 	1
scalar abilene_cost_network.node[6].core_layer 	interests[6] 	180033
scalar abilene_cost_network.node[6].core_layer 	data[6] 	153163
scalar abilene_cost_network.node[6].content_store 	p_hit[6] 	0.13573622613632
scalar abilene_cost_network.node[6].content_store 	hits[6] 	24437
scalar abilene_cost_network.node[6].content_store 	misses[6] 	155596
scalar abilene_cost_network.node[6].content_store 	decision_yes[6] 	39591
scalar abilene_cost_network.node[6].content_store 	decision_no[6] 	113572
scalar abilene_cost_network.node[6].content_store 	decision_ratio[6] 	0.2584893218336
scalar abilene_cost_network.node[6].content_store 	correction_factor[6] 	0.13612850530901
scalar abilene_cost_network.node[6].content_store 	kappa[6] 	1
scalar abilene_cost_network.node[7].core_layer 	interests[7] 	153159
scalar abilene_cost_network.node[7].core_layer 	data[7] 	152488
scalar abilene_cost_network.node[7].content_store 	p_hit[7] 	0.0044006555279154
scalar abilene_cost_network.node[7].content_store 	hits[7] 	674
scalar abilene_cost_network.node[7].content_store 	misses[7] 	152485
scalar abilene_cost_network.node[7].content_store 	decision_yes[7] 	39403
scalar abilene_cost_network.node[7].content_store 	decision_no[7] 	113085
scalar abilene_cost_network.node[7].content_store 	decision_ratio[7] 	0.25840066103562
scalar abilene_cost_network.node[7].content_store 	correction_factor[7] 	0.13612850530901
scalar abilene_cost_network.node[7].content_store 	kappa[7] 	1
scalar abilene_cost_network.node[8].core_layer 	interests[8] 	38315
scalar abilene_cost_network.node[8].core_layer 	data[8] 	37583
scalar abilene_cost_network.node[8].content_store 	p_hit[8] 	0.019104789247031
scalar abilene_cost_network.node[8].content_store 	hits[8] 	732
scalar abilene_cost_network.node[8].content_store 	misses[8] 	37583
scalar abilene_cost_network.node[8].content_store 	decision_yes[8] 	35188
scalar abilene_cost_network.node[8].content_store 	decision_no[8] 	2395
scalar abilene_cost_network.node[8].content_store 	decision_ratio[8] 	0.93627437937365
scalar abilene_cost_network.node[8].content_store 	correction_factor[8] 	0.13612850530901
scalar abilene_cost_network.node[8].content_store 	kappa[8] 	1
scalar abilene_cost_network.node[9].core_layer 	interests[9] 	37583
scalar abilene_cost_network.node[9].core_layer 	data[9] 	37517
scalar abilene_cost_network.node[9].content_store 	p_hit[9] 	0.0017561131362584
scalar abilene_cost_network.node[9].content_store 	hits[9] 	66
scalar abilene_cost_network.node[9].content_store 	misses[9] 	37517
scalar abilene_cost_network.node[9].content_store 	decision_yes[9] 	35188
scalar abilene_cost_network.node[9].content_store 	decision_no[9] 	2329
scalar abilene_cost_network.node[9].content_store 	decision_ratio[9] 	0.93792147559773
scalar abilene_cost_network.node[9].content_store 	correction_factor[9] 	0.13612850530901
scalar abilene_cost_network.node[9].content_store 	kappa[9] 	1
scalar abilene_cost_network.node[10].core_layer 	interests[10] 	112380
scalar abilene_cost_network.node[10].core_layer 	repo_load[10] 	106767
scalar abilene_cost_network.node[10].core_layer 	data[10] 	0
scalar abilene_cost_network.node[10].content_store 	p_hit[10] 	0.049946609717031
scalar abilene_cost_network.node[10].content_store 	hits[10] 	5613
scalar abilene_cost_network.node[10].content_store 	misses[10] 	106767
scalar abilene_cost_network.node[10].content_store 	decision_yes[10] 	106767
scalar abilene_cost_network.node[10].content_store 	decision_no[10] 	0
scalar abilene_cost_network.node[10].content_store 	decision_ratio[10] 	1
scalar abilene_cost_network.node[10].content_store 	correction_factor[10] 	0.13612850530901
scalar abilene_cost_network.node[10].content_store 	kappa[10] 	1
scalar abilene_cost_network.client[2] 	hdistance[2] 	1.7701839486303
scalar abilene_cost_network.client[2] 	downloads[2] 	179561
scalar abilene_cost_network.client[2] 	avg_time[2] 	0.008604211531
scalar abilene_cost_network.client[4] 	hdistance[4] 	3.5528645089773
scalar abilene_cost_network.client[4] 	downloads[4] 	178617
scalar abilene_cost_network.client[4] 	avg_time[4] 	0.01431990654
scalar abilene_cost_network.client[6] 	hdistance[6] 	4.0990540540541
scalar abilene_cost_network.client[6] 	downloads[6] 	177600
scalar abilene_cost_network.client[6] 	avg_time[6] 	0.021446261228
