version 2
run General-0-20141007-10:49:45-14770
attr D costaware0.5
attr F spr
attr R lru
attr a 1
attr configname General
attr csize 1e3
attr ctlg 1e5
attr datetime 20141007-10:49:45
attr experiment General
attr inifile omnetpp.ini
attr iterationvars "$net=abilene_cost, $rep=5, $priceratiovalue=10, $weights=0.333_0.333_0.334, $lambda=100, $a=1, $ctlg=1e5, $F=spr, $ttl=10, $D=costaware0.5, $xi=1, $R=lru, $csize=1e3, $pricebits=0, $window=60, $variance=0.05, $mytime=1800"
attr iterationvars2 "$net=abilene_cost, $rep=5, $priceratiovalue=10, $weights=0.333_0.333_0.334, $lambda=100, $a=1, $ctlg=1e5, $F=spr, $ttl=10, $D=costaware0.5, $xi=1, $R=lru, $csize=1e3, $pricebits=0, $window=60, $variance=0.05, $mytime=1800, $repetition=0"
attr lambda 100
attr measurement "$net=abilene_cost, $rep=5, $priceratiovalue=10, $weights=0.333_0.333_0.334, $lambda=100, $a=1, $ctlg=1e5, $F=spr, $ttl=10, $D=costaware0.5, $xi=1, $R=lru, $csize=1e3, $pricebits=0, $window=60, $variance=0.05, $mytime=1800"
attr mytime 1800
attr net abilene_cost
attr network networks.${net=abilene_cost,geant_cost}_network
attr pricebits 0
attr priceratiovalue 10
attr processid 14770
attr rep 5
attr repetition 0
attr replication #0
attr resultdir results
attr runnumber 0
attr seedset 5
attr ttl 10
attr variance 0.05
attr weights 0.333_0.333_0.334
attr window 60
attr xi 1

scalar . 	a 	1
scalar . 	csize 	1e3
scalar . 	ctlg 	1e5
scalar . 	lambda 	100
scalar . 	mytime 	1800
scalar . 	pricebits 	0
scalar . 	priceratiovalue 	10
scalar . 	rep 	5
scalar . 	ttl 	10
scalar . 	variance 	0.05
scalar . 	window 	60
scalar . 	xi 	1
scalar abilene_cost_network.content_distribution 	repo-0 	9
scalar abilene_cost_network.content_distribution 	repo-1 	5
scalar abilene_cost_network.content_distribution 	repo-2 	1
scalar abilene_cost_network.content_distribution 	client-0 	4
scalar abilene_cost_network.content_distribution 	client-1 	9
scalar abilene_cost_network.content_distribution 	client-2 	0
scalar abilene_cost_network.content_distribution 	repo-0_card 	33098
scalar abilene_cost_network.content_distribution 	repo-0_price 	1
scalar abilene_cost_network.content_distribution 	repo-1_card 	33495
scalar abilene_cost_network.content_distribution 	repo-1_price 	10
scalar abilene_cost_network.content_distribution 	repo-2_card 	33407
scalar abilene_cost_network.content_distribution 	repo-2_price 	0
scalar abilene_cost_network.statistics 	repo_popularity[0] 	0.31037770261398
scalar abilene_cost_network.statistics 	repo_popularity[1] 	0.29913869324176
scalar abilene_cost_network.statistics 	repo_popularity[2] 	0.39048360414427
scalar abilene_cost_network.statistics 	stabilization_time 	87.4
scalar abilene_cost_network.statistics 	p_hit 	0.067231694266202
scalar abilene_cost_network.statistics 	interests 	148064.63636364
scalar abilene_cost_network.statistics 	data 	98960.363636364
scalar abilene_cost_network.statistics 	hdistance 	2.8304596452966
scalar abilene_cost_network.statistics 	avg_time 	0.013212940846
scalar abilene_cost_network.statistics 	downloads 	534802
scalar abilene_cost_network.statistics 	total_cost 	1166686
scalar abilene_cost_network.statistics 	total_replicas 	100000
scalar abilene_cost_network.statistics 	inner_hit 	0.20478420050785
scalar abilene_cost_network.node[0].core_layer 	interests[0] 	180906
scalar abilene_cost_network.node[0].core_layer 	data[0] 	165291
scalar abilene_cost_network.node[0].core_layer 	repo_int[0] 	425283
scalar abilene_cost_network.node[0].content_store 	p_hit[0] 	0.076907344145578
scalar abilene_cost_network.node[0].content_store 	hits[0] 	13913
scalar abilene_cost_network.node[0].content_store 	misses[0] 	166993
scalar abilene_cost_network.node[0].content_store 	decision_yes[0] 	38723
scalar abilene_cost_network.node[0].content_store 	decision_no[0] 	126568
scalar abilene_cost_network.node[0].content_store 	decision_ratio[0] 	0.23427167843379
scalar abilene_cost_network.node[0].content_store 	correction_factor[0] 	0.13612850530901
scalar abilene_cost_network.node[0].content_store 	kappa[0] 	1
scalar abilene_cost_network.node[1].core_layer 	interests[1] 	247117
scalar abilene_cost_network.node[1].core_layer 	repo_load[1] 	206747
scalar abilene_cost_network.node[1].core_layer 	data[1] 	39443
scalar abilene_cost_network.node[1].content_store 	p_hit[1] 	0.0037553061909945
scalar abilene_cost_network.node[1].content_store 	hits[1] 	928
scalar abilene_cost_network.node[1].content_store 	misses[1] 	246189
scalar abilene_cost_network.node[1].content_store 	decision_yes[1] 	34281
scalar abilene_cost_network.node[1].content_store 	decision_no[1] 	211909
scalar abilene_cost_network.node[1].content_store 	decision_ratio[1] 	0.13924611072749
scalar abilene_cost_network.node[1].content_store 	correction_factor[1] 	0.13612850530901
scalar abilene_cost_network.node[1].content_store 	kappa[1] 	1
scalar abilene_cost_network.node[2].core_layer 	interests[2] 	155971
scalar abilene_cost_network.node[2].core_layer 	data[2] 	154539
scalar abilene_cost_network.node[2].content_store 	p_hit[2] 	0.0091811939398991
scalar abilene_cost_network.node[2].content_store 	hits[2] 	1432
scalar abilene_cost_network.node[2].content_store 	misses[2] 	154539
scalar abilene_cost_network.node[2].content_store 	decision_yes[2] 	39532
scalar abilene_cost_network.node[2].content_store 	decision_no[2] 	115007
scalar abilene_cost_network.node[2].content_store 	decision_ratio[2] 	0.25580597777907
scalar abilene_cost_network.node[2].content_store 	correction_factor[2] 	0.13612850530901
scalar abilene_cost_network.node[2].content_store 	kappa[2] 	1
scalar abilene_cost_network.node[3].core_layer 	interests[3] 	163612
scalar abilene_cost_network.node[3].core_layer 	data[3] 	155970
scalar abilene_cost_network.node[3].content_store 	p_hit[3] 	0.046701953401951
scalar abilene_cost_network.node[3].content_store 	hits[3] 	7641
scalar abilene_cost_network.node[3].content_store 	misses[3] 	155971
scalar abilene_cost_network.node[3].content_store 	decision_yes[3] 	39534
scalar abilene_cost_network.node[3].content_store 	decision_no[3] 	116436
scalar abilene_cost_network.node[3].content_store 	decision_ratio[3] 	0.25347182150414
scalar abilene_cost_network.node[3].content_store 	correction_factor[3] 	0.13612850530901
scalar abilene_cost_network.node[3].content_store 	kappa[3] 	1
scalar abilene_cost_network.node[4].core_layer 	interests[4] 	219406
scalar abilene_cost_network.node[4].core_layer 	data[4] 	197987
scalar abilene_cost_network.node[4].content_store 	p_hit[4] 	0.088999389260093
scalar abilene_cost_network.node[4].content_store 	hits[4] 	19527
scalar abilene_cost_network.node[4].content_store 	misses[4] 	199879
scalar abilene_cost_network.node[4].content_store 	decision_yes[4] 	75759
scalar abilene_cost_network.node[4].content_store 	decision_no[4] 	122228
scalar abilene_cost_network.node[4].content_store 	decision_ratio[4] 	0.38264633536545
scalar abilene_cost_network.node[4].content_store 	correction_factor[4] 	0.13612850530901
scalar abilene_cost_network.node[4].content_store 	kappa[4] 	1
scalar abilene_cost_network.node[5].core_layer 	interests[5] 	111091
scalar abilene_cost_network.node[5].core_layer 	repo_load[5] 	105350
scalar abilene_cost_network.node[5].core_layer 	data[5] 	0
scalar abilene_cost_network.node[5].content_store 	p_hit[5] 	0.051678353782035
scalar abilene_cost_network.node[5].content_store 	hits[5] 	5741
scalar abilene_cost_network.node[5].content_store 	misses[5] 	105350
scalar abilene_cost_network.node[5].content_store 	decision_yes[5] 	105350
scalar abilene_cost_network.node[5].content_store 	decision_no[5] 	0
scalar abilene_cost_network.node[5].content_store 	decision_ratio[5] 	1
scalar abilene_cost_network.node[5].content_store 	correction_factor[5] 	0.13612850530901
scalar abilene_cost_network.node[5].content_store 	kappa[5] 	1
scalar abilene_cost_network.node[6].core_layer 	interests[6] 	37406
scalar abilene_cost_network.node[6].core_layer 	data[6] 	37275
scalar abilene_cost_network.node[6].content_store 	p_hit[6] 	0.003502111960648
scalar abilene_cost_network.node[6].content_store 	hits[6] 	131
scalar abilene_cost_network.node[6].content_store 	misses[6] 	37275
scalar abilene_cost_network.node[6].content_store 	decision_yes[6] 	34786
scalar abilene_cost_network.node[6].content_store 	decision_no[6] 	2489
scalar abilene_cost_network.node[6].content_store 	decision_ratio[6] 	0.93322602280349
scalar abilene_cost_network.node[6].content_store 	correction_factor[6] 	0.13612850530901
scalar abilene_cost_network.node[6].content_store 	kappa[6] 	1
scalar abilene_cost_network.node[7].core_layer 	interests[7] 	38817
scalar abilene_cost_network.node[7].core_layer 	data[7] 	37406
scalar abilene_cost_network.node[7].content_store 	p_hit[7] 	0.036350052811912
scalar abilene_cost_network.node[7].content_store 	hits[7] 	1411
scalar abilene_cost_network.node[7].content_store 	misses[7] 	37406
scalar abilene_cost_network.node[7].content_store 	decision_yes[7] 	34786
scalar abilene_cost_network.node[7].content_store 	decision_no[7] 	2620
scalar abilene_cost_network.node[7].content_store 	decision_ratio[7] 	0.92995776078704
scalar abilene_cost_network.node[7].content_store 	correction_factor[7] 	0.13612850530901
scalar abilene_cost_network.node[7].content_store 	kappa[7] 	1
scalar abilene_cost_network.node[8].core_layer 	interests[8] 	86474
scalar abilene_cost_network.node[8].core_layer 	data[8] 	83859
scalar abilene_cost_network.node[8].content_store 	p_hit[8] 	0.03024030344381
scalar abilene_cost_network.node[8].content_store 	hits[8] 	2615
scalar abilene_cost_network.node[8].content_store 	misses[8] 	83859
scalar abilene_cost_network.node[8].content_store 	decision_yes[8] 	40022
scalar abilene_cost_network.node[8].content_store 	decision_no[8] 	43837
scalar abilene_cost_network.node[8].content_store 	decision_ratio[8] 	0.47725348501652
scalar abilene_cost_network.node[8].content_store 	correction_factor[8] 	0.13612850530901
scalar abilene_cost_network.node[8].content_store 	kappa[8] 	1
scalar abilene_cost_network.node[9].core_layer 	interests[9] 	264035
scalar abilene_cost_network.node[9].core_layer 	repo_load[9] 	113186
scalar abilene_cost_network.node[9].core_layer 	data[9] 	108730
scalar abilene_cost_network.node[9].content_store 	p_hit[9] 	0.15281686140095
scalar abilene_cost_network.node[9].content_store 	hits[9] 	40349
scalar abilene_cost_network.node[9].content_store 	misses[9] 	223686
scalar abilene_cost_network.node[9].content_store 	decision_yes[9] 	50373
scalar abilene_cost_network.node[9].content_store 	decision_no[9] 	171543
scalar abilene_cost_network.node[9].content_store 	decision_ratio[9] 	0.22699129400314
scalar abilene_cost_network.node[9].content_store 	correction_factor[9] 	0.13612850530901
scalar abilene_cost_network.node[9].content_store 	kappa[9] 	1
scalar abilene_cost_network.node[10].core_layer 	interests[10] 	123876
scalar abilene_cost_network.node[10].core_layer 	data[10] 	108064
scalar abilene_cost_network.node[10].content_store 	p_hit[10] 	0.12765184539378
scalar abilene_cost_network.node[10].content_store 	hits[10] 	15813
scalar abilene_cost_network.node[10].content_store 	misses[10] 	108063
scalar abilene_cost_network.node[10].content_store 	decision_yes[10] 	4411
scalar abilene_cost_network.node[10].content_store 	decision_no[10] 	103653
scalar abilene_cost_network.node[10].content_store 	decision_ratio[10] 	0.040818403908795
scalar abilene_cost_network.node[10].content_store 	correction_factor[10] 	0.13612850530901
scalar abilene_cost_network.node[10].content_store 	kappa[10] 	1
scalar abilene_cost_network.client[0] 	hdistance[0] 	2.7646704314636
scalar abilene_cost_network.client[0] 	downloads[0] 	179204
scalar abilene_cost_network.client[0] 	avg_time[0] 	0.014023158679
scalar abilene_cost_network.client[4] 	hdistance[4] 	3.2726828610895
scalar abilene_cost_network.client[4] 	downloads[4] 	178086
scalar abilene_cost_network.client[4] 	avg_time[4] 	0.01381904546
scalar abilene_cost_network.client[9] 	hdistance[9] 	2.4540256433368
scalar abilene_cost_network.client[9] 	downloads[9] 	177512
scalar abilene_cost_network.client[9] 	avg_time[9] 	0.011796618399
