version 2
run General-2-20150311-19:33:40-15745
attr D costaware0.01
attr F nrr
attr R lru
attr a 1
attr configname General
attr csize 1e3
attr ctlg 1e5
attr datetime 20150311-19:33:40
attr experiment General
attr inifile omnetpp.ini
attr iterationvars "$rep=26, $net=geant_cost, $lambda=100, $a=1, $ctlg=1e5, $F=nrr, $ttl=10, $D=costaware0.01, $R=lru, $csize=1e3, $window=60, $variance=0.05, $mytime=1800, $kappa=1, $priceratiovalue=10, $pricebits=0"
attr iterationvars2 "$rep=26, $net=geant_cost, $lambda=100, $a=1, $ctlg=1e5, $F=nrr, $ttl=10, $D=costaware0.01, $R=lru, $csize=1e3, $window=60, $variance=0.05, $mytime=1800, $kappa=1, $priceratiovalue=10, $pricebits=0, $repetition=0"
attr kappa 1
attr lambda 100
attr measurement "$rep=26, $net=geant_cost, $lambda=100, $a=1, $ctlg=1e5, $F=nrr, $ttl=10, $D=costaware0.01, $R=lru, $csize=1e3, $window=60, $variance=0.05, $mytime=1800, $kappa=1, $priceratiovalue=10, $pricebits=0"
attr mytime 1800
attr net geant_cost
attr network networks.${net=geant_cost}_network
attr pricebits 0
attr priceratiovalue 10
attr processid 15745
attr rep 26
attr repetition 0
attr replication #0
attr resultdir results
attr runnumber 2
attr seedset 26
attr ttl 10
attr variance 0.05
attr window 60

scalar . 	a 	1
scalar . 	csize 	1e3
scalar . 	ctlg 	1e5
scalar . 	kappa 	1
scalar . 	lambda 	100
scalar . 	mytime 	1800
scalar . 	pricebits 	0
scalar . 	priceratiovalue 	10
scalar . 	rep 	26
scalar . 	ttl 	10
scalar . 	variance 	0.05
scalar . 	window 	60
scalar geant_cost_network.content_distribution 	repo-0 	18
scalar geant_cost_network.content_distribution 	repo-1 	6
scalar geant_cost_network.content_distribution 	repo-2 	9
scalar geant_cost_network.content_distribution 	client-0 	10
scalar geant_cost_network.content_distribution 	client-1 	3
scalar geant_cost_network.content_distribution 	client-2 	20
scalar geant_cost_network.content_distribution 	client-3 	18
scalar geant_cost_network.content_distribution 	client-4 	8
scalar geant_cost_network.content_distribution 	client-5 	1
scalar geant_cost_network.content_distribution 	client-6 	17
scalar geant_cost_network.content_distribution 	client-7 	11
scalar geant_cost_network.content_distribution 	client-8 	15
scalar geant_cost_network.content_distribution 	client-9 	13
scalar geant_cost_network.content_distribution 	client-10 	9
scalar geant_cost_network.content_distribution 	client-11 	2
scalar geant_cost_network.content_distribution 	client-12 	12
scalar geant_cost_network.content_distribution 	client-13 	6
scalar geant_cost_network.content_distribution 	client-14 	4
scalar geant_cost_network.content_distribution 	client-15 	16
scalar geant_cost_network.content_distribution 	client-16 	19
scalar geant_cost_network.content_distribution 	client-17 	0
scalar geant_cost_network.content_distribution 	client-18 	5
scalar geant_cost_network.content_distribution 	client-19 	21
scalar geant_cost_network.content_distribution 	client-20 	7
scalar geant_cost_network.content_distribution 	client-21 	14
scalar geant_cost_network.content_distribution 	repo-0_card 	33308
scalar geant_cost_network.content_distribution 	repo-0_price 	0
scalar geant_cost_network.content_distribution 	repo-1_card 	33280
scalar geant_cost_network.content_distribution 	repo-1_price 	1
scalar geant_cost_network.content_distribution 	repo-2_card 	33412
scalar geant_cost_network.content_distribution 	repo-2_price 	10
scalar geant_cost_network.statistics 	repo_popularity[0] 	0.26405519849069
scalar geant_cost_network.statistics 	repo_popularity[1] 	0.44950931758444
scalar geant_cost_network.statistics 	repo_popularity[2] 	0.28643548392488
scalar geant_cost_network.statistics 	stabilization_time 	207.6
scalar geant_cost_network.statistics 	p_hit 	0.12878277808915
scalar geant_cost_network.statistics 	interests 	576947.90909091
scalar geant_cost_network.statistics 	data 	396905
scalar geant_cost_network.statistics 	hdistance 	2.8337814542787
scalar geant_cost_network.statistics 	avg_time 	0.015153662062
scalar geant_cost_network.statistics 	downloads 	3911880
scalar geant_cost_network.statistics 	total_cost 	6064709
scalar geant_cost_network.statistics 	total_replicas 	100000
scalar geant_cost_network.statistics 	inner_hit 	0.44116639569721
scalar geant_cost_network.statistics 	interests_sent 	3960965
scalar geant_cost_network.node[0].core_layer 	interests[0] 	203072
scalar geant_cost_network.node[0].core_layer 	data[0] 	178654
scalar geant_cost_network.node[0].core_layer 	repo_int[0] 	2186090
scalar geant_cost_network.node[0].content_store 	p_hit[0] 	0.081419398046013
scalar geant_cost_network.node[0].content_store 	hits[0] 	16534
scalar geant_cost_network.node[0].content_store 	misses[0] 	186538
scalar geant_cost_network.node[0].content_store 	decision_yes[0] 	690
scalar geant_cost_network.node[0].content_store 	decision_no[0] 	177964
scalar geant_cost_network.node[0].content_store 	decision_ratio[0] 	0.0038622141121945
scalar geant_cost_network.node[0].content_store 	cache_value[0] 	0.7372351904356
scalar geant_cost_network.node[0].content_store 	average_price_of_cache[0] 	8.6304347826087
scalar geant_cost_network.node[0].content_store 	correction_factor[0] 	0.0027225701061802
scalar geant_cost_network.node[0].content_store 	kappa[0] 	1
scalar geant_cost_network.node[1].core_layer 	interests[1] 	367660
scalar geant_cost_network.node[1].core_layer 	data[1] 	341411
scalar geant_cost_network.node[1].content_store 	p_hit[1] 	0.061159767176195
scalar geant_cost_network.node[1].content_store 	hits[1] 	22486
scalar geant_cost_network.node[1].content_store 	misses[1] 	345174
scalar geant_cost_network.node[1].content_store 	decision_yes[1] 	1389
scalar geant_cost_network.node[1].content_store 	decision_no[1] 	340022
scalar geant_cost_network.node[1].content_store 	decision_ratio[1] 	0.0040684102152538
scalar geant_cost_network.node[1].content_store 	cache_value[1] 	0.59813429956406
scalar geant_cost_network.node[1].content_store 	average_price_of_cache[1] 	7.4565217391304
scalar geant_cost_network.node[1].content_store 	correction_factor[1] 	0.0027225701061802
scalar geant_cost_network.node[1].content_store 	kappa[1] 	1
scalar geant_cost_network.node[2].core_layer 	interests[2] 	195866
scalar geant_cost_network.node[2].core_layer 	data[2] 	175646
scalar geant_cost_network.node[2].content_store 	p_hit[2] 	0.088121470801466
scalar geant_cost_network.node[2].content_store 	hits[2] 	17260
scalar geant_cost_network.node[2].content_store 	misses[2] 	178606
scalar geant_cost_network.node[2].content_store 	decision_yes[2] 	668
scalar geant_cost_network.node[2].content_store 	decision_no[2] 	174978
scalar geant_cost_network.node[2].content_store 	decision_ratio[2] 	0.0038031039704861
scalar geant_cost_network.node[2].content_store 	cache_value[2] 	0.71904044911358
scalar geant_cost_network.node[2].content_store 	average_price_of_cache[2] 	9.0217391304348
scalar geant_cost_network.node[2].content_store 	correction_factor[2] 	0.0027225701061802
scalar geant_cost_network.node[2].content_store 	kappa[2] 	1
scalar geant_cost_network.node[3].core_layer 	interests[3] 	1050951
scalar geant_cost_network.node[3].core_layer 	data[3] 	966729
scalar geant_cost_network.node[3].content_store 	p_hit[3] 	0.066811868488636
scalar geant_cost_network.node[3].content_store 	hits[3] 	70216
scalar geant_cost_network.node[3].content_store 	misses[3] 	980735
scalar geant_cost_network.node[3].content_store 	decision_yes[3] 	3598
scalar geant_cost_network.node[3].content_store 	decision_no[3] 	963131
scalar geant_cost_network.node[3].content_store 	decision_ratio[3] 	0.003721828971718
scalar geant_cost_network.node[3].content_store 	cache_value[3] 	2.0938805927322
scalar geant_cost_network.node[3].content_store 	average_price_of_cache[3] 	7.6521739130435
scalar geant_cost_network.node[3].content_store 	correction_factor[3] 	0.0027225701061802
scalar geant_cost_network.node[3].content_store 	kappa[3] 	1
scalar geant_cost_network.node[4].core_layer 	interests[4] 	1212241
scalar geant_cost_network.node[4].core_layer 	data[4] 	968786
scalar geant_cost_network.node[4].content_store 	p_hit[4] 	0.19552547719472
scalar geant_cost_network.node[4].content_store 	hits[4] 	237024
scalar geant_cost_network.node[4].content_store 	misses[4] 	975217
scalar geant_cost_network.node[4].content_store 	decision_yes[4] 	3212
scalar geant_cost_network.node[4].content_store 	decision_no[4] 	965573
scalar geant_cost_network.node[4].content_store 	decision_ratio[4] 	0.003315493117668
scalar geant_cost_network.node[4].content_store 	cache_value[4] 	1.7222431423034
scalar geant_cost_network.node[4].content_store 	average_price_of_cache[4] 	9.0217391304348
scalar geant_cost_network.node[4].content_store 	correction_factor[4] 	0.0027225701061802
scalar geant_cost_network.node[4].content_store 	kappa[4] 	1
scalar geant_cost_network.node[5].core_layer 	interests[5] 	921065
scalar geant_cost_network.node[5].core_layer 	data[5] 	783184
scalar geant_cost_network.node[5].content_store 	p_hit[5] 	0.13465716317524
scalar geant_cost_network.node[5].content_store 	hits[5] 	124028
scalar geant_cost_network.node[5].content_store 	misses[5] 	797037
scalar geant_cost_network.node[5].content_store 	decision_yes[5] 	1780
scalar geant_cost_network.node[5].content_store 	decision_no[5] 	781404
scalar geant_cost_network.node[5].content_store 	decision_ratio[5] 	0.0022727737032421
scalar geant_cost_network.node[5].content_store 	cache_value[5] 	1.1858935602129
scalar geant_cost_network.node[5].content_store 	average_price_of_cache[5] 	2.9565217391304
scalar geant_cost_network.node[5].content_store 	correction_factor[5] 	0.0027225701061802
scalar geant_cost_network.node[5].content_store 	kappa[5] 	1
scalar geant_cost_network.node[6].core_layer 	interests[6] 	1106601
scalar geant_cost_network.node[6].core_layer 	repo_load[6] 	604429
scalar geant_cost_network.node[6].core_layer 	data[6] 	104082
scalar geant_cost_network.node[6].content_store 	p_hit[6] 	0.35959483138005
scalar geant_cost_network.node[6].content_store 	hits[6] 	397928
scalar geant_cost_network.node[6].content_store 	misses[6] 	708673
scalar geant_cost_network.node[6].content_store 	decision_yes[6] 	2236
scalar geant_cost_network.node[6].content_store 	decision_no[6] 	706275
scalar geant_cost_network.node[6].content_store 	decision_ratio[6] 	0.0031559143047885
scalar geant_cost_network.node[6].content_store 	cache_value[6] 	2.9468169031811
scalar geant_cost_network.node[6].content_store 	average_price_of_cache[6] 	2.1739130434783
scalar geant_cost_network.node[6].content_store 	correction_factor[6] 	0.0027225701061802
scalar geant_cost_network.node[6].content_store 	kappa[6] 	1
scalar geant_cost_network.node[7].core_layer 	interests[7] 	770809
scalar geant_cost_network.node[7].core_layer 	data[7] 	664240
scalar geant_cost_network.node[7].content_store 	p_hit[7] 	0.13298625210655
scalar geant_cost_network.node[7].content_store 	hits[7] 	102507
scalar geant_cost_network.node[7].content_store 	misses[7] 	668302
scalar geant_cost_network.node[7].content_store 	decision_yes[7] 	4824
scalar geant_cost_network.node[7].content_store 	decision_no[7] 	659416
scalar geant_cost_network.node[7].content_store 	decision_ratio[7] 	0.0072624352643623
scalar geant_cost_network.node[7].content_store 	cache_value[7] 	2.9760217795904
scalar geant_cost_network.node[7].content_store 	average_price_of_cache[7] 	7.6521739130435
scalar geant_cost_network.node[7].content_store 	correction_factor[7] 	0.0027225701061802
scalar geant_cost_network.node[7].content_store 	kappa[7] 	1
scalar geant_cost_network.node[8].core_layer 	interests[8] 	514100
scalar geant_cost_network.node[8].core_layer 	data[8] 	471640
scalar geant_cost_network.node[8].content_store 	p_hit[8] 	0.077234001167088
scalar geant_cost_network.node[8].content_store 	hits[8] 	39706
scalar geant_cost_network.node[8].content_store 	misses[8] 	474394
scalar geant_cost_network.node[8].content_store 	decision_yes[8] 	5494
scalar geant_cost_network.node[8].content_store 	decision_no[8] 	466146
scalar geant_cost_network.node[8].content_store 	decision_ratio[8] 	0.011648715121703
scalar geant_cost_network.node[8].content_store 	cache_value[8] 	4.0800710253234
scalar geant_cost_network.node[8].content_store 	average_price_of_cache[8] 	8.6304347826087
scalar geant_cost_network.node[8].content_store 	correction_factor[8] 	0.0027225701061802
scalar geant_cost_network.node[8].content_store 	kappa[8] 	1
scalar geant_cost_network.node[9].core_layer 	interests[9] 	921475
scalar geant_cost_network.node[9].core_layer 	repo_load[9] 	546028
scalar geant_cost_network.node[9].core_layer 	data[9] 	253039
scalar geant_cost_network.node[9].content_store 	p_hit[9] 	0.12729482622969
scalar geant_cost_network.node[9].content_store 	hits[9] 	117299
scalar geant_cost_network.node[9].content_store 	misses[9] 	804176
scalar geant_cost_network.node[9].content_store 	decision_yes[9] 	15159
scalar geant_cost_network.node[9].content_store 	decision_no[9] 	783908
scalar geant_cost_network.node[9].content_store 	decision_ratio[9] 	0.018970874782715
scalar geant_cost_network.node[9].content_store 	cache_value[9] 	7.152736341304
scalar geant_cost_network.node[9].content_store 	average_price_of_cache[9] 	10
scalar geant_cost_network.node[9].content_store 	correction_factor[9] 	0.0027225701061802
scalar geant_cost_network.node[9].content_store 	kappa[9] 	1
scalar geant_cost_network.node[10].core_layer 	interests[10] 	223540
scalar geant_cost_network.node[10].core_layer 	data[10] 	200635
scalar geant_cost_network.node[10].content_store 	p_hit[10] 	0.09244877874206
scalar geant_cost_network.node[10].content_store 	hits[10] 	20666
scalar geant_cost_network.node[10].content_store 	misses[10] 	202874
scalar geant_cost_network.node[10].content_store 	decision_yes[10] 	1631
scalar geant_cost_network.node[10].content_store 	decision_no[10] 	199004
scalar geant_cost_network.node[10].content_store 	decision_ratio[10] 	0.0081291898223142
scalar geant_cost_network.node[10].content_store 	cache_value[10] 	6.917586603237
scalar geant_cost_network.node[10].content_store 	average_price_of_cache[10] 	9.2173913043478
scalar geant_cost_network.node[10].content_store 	correction_factor[10] 	0.0027225701061802
scalar geant_cost_network.node[10].content_store 	kappa[10] 	1
scalar geant_cost_network.node[11].core_layer 	interests[11] 	206719
scalar geant_cost_network.node[11].core_layer 	data[11] 	174528
scalar geant_cost_network.node[11].content_store 	p_hit[11] 	0.14174797672202
scalar geant_cost_network.node[11].content_store 	hits[11] 	29302
scalar geant_cost_network.node[11].content_store 	misses[11] 	177417
scalar geant_cost_network.node[11].content_store 	decision_yes[11] 	772
scalar geant_cost_network.node[11].content_store 	decision_no[11] 	173756
scalar geant_cost_network.node[11].content_store 	decision_ratio[11] 	0.0044233590025669
scalar geant_cost_network.node[11].content_store 	cache_value[11] 	1.3586791291074
scalar geant_cost_network.node[11].content_store 	average_price_of_cache[11] 	8.4347826086957
scalar geant_cost_network.node[11].content_store 	correction_factor[11] 	0.0027225701061802
scalar geant_cost_network.node[11].content_store 	kappa[11] 	1
scalar geant_cost_network.node[12].core_layer 	interests[12] 	829222
scalar geant_cost_network.node[12].core_layer 	data[12] 	749454
scalar geant_cost_network.node[12].content_store 	p_hit[12] 	0.078885991929785
scalar geant_cost_network.node[12].content_store 	hits[12] 	65414
scalar geant_cost_network.node[12].content_store 	misses[12] 	763808
scalar geant_cost_network.node[12].content_store 	decision_yes[12] 	7157
scalar geant_cost_network.node[12].content_store 	decision_no[12] 	742296
scalar geant_cost_network.node[12].content_store 	decision_ratio[12] 	0.0095496315312635
scalar geant_cost_network.node[12].content_store 	cache_value[12] 	3.276693426462
scalar geant_cost_network.node[12].content_store 	average_price_of_cache[12] 	9.4130434782609
scalar geant_cost_network.node[12].content_store 	correction_factor[12] 	0.0027225701061802
scalar geant_cost_network.node[12].content_store 	kappa[12] 	1
scalar geant_cost_network.node[13].core_layer 	interests[13] 	304269
scalar geant_cost_network.node[13].core_layer 	data[13] 	252825
scalar geant_cost_network.node[13].content_store 	p_hit[13] 	0.13247159585761
scalar geant_cost_network.node[13].content_store 	hits[13] 	40307
scalar geant_cost_network.node[13].content_store 	misses[13] 	263962
scalar geant_cost_network.node[13].content_store 	decision_yes[13] 	1950
scalar geant_cost_network.node[13].content_store 	decision_no[13] 	250875
scalar geant_cost_network.node[13].content_store 	decision_ratio[13] 	0.0077128448531593
scalar geant_cost_network.node[13].content_store 	cache_value[13] 	2.3860657743736
scalar geant_cost_network.node[13].content_store 	average_price_of_cache[13] 	9.4130434782609
scalar geant_cost_network.node[13].content_store 	correction_factor[13] 	0.0027225701061802
scalar geant_cost_network.node[13].content_store 	kappa[13] 	1
scalar geant_cost_network.node[14].core_layer 	interests[14] 	897726
scalar geant_cost_network.node[14].core_layer 	data[14] 	736841
scalar geant_cost_network.node[14].content_store 	p_hit[14] 	0.15391778783281
scalar geant_cost_network.node[14].content_store 	hits[14] 	138176
scalar geant_cost_network.node[14].content_store 	misses[14] 	759550
scalar geant_cost_network.node[14].content_store 	decision_yes[14] 	1800
scalar geant_cost_network.node[14].content_store 	decision_no[14] 	735041
scalar geant_cost_network.node[14].content_store 	decision_ratio[14] 	0.0024428608071484
scalar geant_cost_network.node[14].content_store 	cache_value[14] 	1.2080888997256
scalar geant_cost_network.node[14].content_store 	average_price_of_cache[14] 	4.7173913043478
scalar geant_cost_network.node[14].content_store 	correction_factor[14] 	0.0027225701061802
scalar geant_cost_network.node[14].content_store 	kappa[14] 	1
scalar geant_cost_network.node[15].core_layer 	interests[15] 	312838
scalar geant_cost_network.node[15].core_layer 	data[15] 	280340
scalar geant_cost_network.node[15].content_store 	p_hit[15] 	0.08646328131493
scalar geant_cost_network.node[15].content_store 	hits[15] 	27049
scalar geant_cost_network.node[15].content_store 	misses[15] 	285789
scalar geant_cost_network.node[15].content_store 	decision_yes[15] 	1320
scalar geant_cost_network.node[15].content_store 	decision_no[15] 	279020
scalar geant_cost_network.node[15].content_store 	decision_ratio[15] 	0.0047085681672255
scalar geant_cost_network.node[15].content_store 	cache_value[15] 	0.80264384017464
scalar geant_cost_network.node[15].content_store 	average_price_of_cache[15] 	8.2391304347826
scalar geant_cost_network.node[15].content_store 	correction_factor[15] 	0.0027225701061802
scalar geant_cost_network.node[15].content_store 	kappa[15] 	1
scalar geant_cost_network.node[16].core_layer 	interests[16] 	225153
scalar geant_cost_network.node[16].core_layer 	data[16] 	171750
scalar geant_cost_network.node[16].content_store 	p_hit[16] 	0.2201036628426
scalar geant_cost_network.node[16].content_store 	hits[16] 	49557
scalar geant_cost_network.node[16].content_store 	misses[16] 	175596
scalar geant_cost_network.node[16].content_store 	decision_yes[16] 	685
scalar geant_cost_network.node[16].content_store 	decision_no[16] 	171065
scalar geant_cost_network.node[16].content_store 	decision_ratio[16] 	0.0039883551673945
scalar geant_cost_network.node[16].content_store 	cache_value[16] 	0.73491427477541
scalar geant_cost_network.node[16].content_store 	average_price_of_cache[16] 	7.6521739130435
scalar geant_cost_network.node[16].content_store 	correction_factor[16] 	0.0027225701061802
scalar geant_cost_network.node[16].content_store 	kappa[16] 	1
scalar geant_cost_network.node[17].core_layer 	interests[17] 	272517
scalar geant_cost_network.node[17].core_layer 	data[17] 	245664
scalar geant_cost_network.node[17].content_store 	p_hit[17] 	0.088559612794798
scalar geant_cost_network.node[17].content_store 	hits[17] 	24134
scalar geant_cost_network.node[17].content_store 	misses[17] 	248383
scalar geant_cost_network.node[17].content_store 	decision_yes[17] 	700
scalar geant_cost_network.node[17].content_store 	decision_no[17] 	244964
scalar geant_cost_network.node[17].content_store 	decision_ratio[17] 	0.0028494203464895
scalar geant_cost_network.node[17].content_store 	cache_value[17] 	0.80480864533893
scalar geant_cost_network.node[17].content_store 	average_price_of_cache[17] 	7.4565217391304
scalar geant_cost_network.node[17].content_store 	correction_factor[17] 	0.0027225701061802
scalar geant_cost_network.node[17].content_store 	kappa[17] 	1
scalar geant_cost_network.node[18].core_layer 	interests[18] 	1476377
scalar geant_cost_network.node[18].core_layer 	repo_load[18] 	1035633
scalar geant_cost_network.node[18].core_layer 	data[18] 	385157
scalar geant_cost_network.node[18].content_store 	p_hit[18] 	0.032027050001456
scalar geant_cost_network.node[18].content_store 	hits[18] 	47284
scalar geant_cost_network.node[18].content_store 	misses[18] 	1429093
scalar geant_cost_network.node[18].content_store 	decision_yes[18] 	1956
scalar geant_cost_network.node[18].content_store 	decision_no[18] 	1418834
scalar geant_cost_network.node[18].content_store 	decision_ratio[18] 	0.0013766988787928
scalar geant_cost_network.node[18].content_store 	cache_value[18] 	0.72044742220883
scalar geant_cost_network.node[18].content_store 	average_price_of_cache[18] 	7.4565217391304
scalar geant_cost_network.node[18].content_store 	correction_factor[18] 	0.0027225701061802
scalar geant_cost_network.node[18].content_store 	kappa[18] 	1
scalar geant_cost_network.node[19].core_layer 	interests[19] 	193049
scalar geant_cost_network.node[19].core_layer 	data[19] 	177741
scalar geant_cost_network.node[19].content_store 	p_hit[19] 	0.071152919725044
scalar geant_cost_network.node[19].content_store 	hits[19] 	13736
scalar geant_cost_network.node[19].content_store 	misses[19] 	179313
scalar geant_cost_network.node[19].content_store 	decision_yes[19] 	729
scalar geant_cost_network.node[19].content_store 	decision_no[19] 	177012
scalar geant_cost_network.node[19].content_store 	decision_ratio[19] 	0.0041014734923287
scalar geant_cost_network.node[19].content_store 	cache_value[19] 	0.64657749432669
scalar geant_cost_network.node[19].content_store 	average_price_of_cache[19] 	8.6304347826087
scalar geant_cost_network.node[19].content_store 	correction_factor[19] 	0.0027225701061802
scalar geant_cost_network.node[19].content_store 	kappa[19] 	1
scalar geant_cost_network.node[20].core_layer 	interests[20] 	199275
scalar geant_cost_network.node[20].core_layer 	data[20] 	180164
scalar geant_cost_network.node[20].content_store 	p_hit[20] 	0.087808305106009
scalar geant_cost_network.node[20].content_store 	hits[20] 	17498
scalar geant_cost_network.node[20].content_store 	misses[20] 	181777
scalar geant_cost_network.node[20].content_store 	decision_yes[20] 	700
scalar geant_cost_network.node[20].content_store 	decision_no[20] 	179464
scalar geant_cost_network.node[20].content_store 	decision_ratio[20] 	0.0038853489043316
scalar geant_cost_network.node[20].content_store 	cache_value[20] 	1.1122974142364
scalar geant_cost_network.node[20].content_store 	average_price_of_cache[20] 	9.0217391304348
scalar geant_cost_network.node[20].content_store 	correction_factor[20] 	0.0027225701061802
scalar geant_cost_network.node[20].content_store 	kappa[20] 	1
scalar geant_cost_network.node[21].core_layer 	interests[21] 	288329
scalar geant_cost_network.node[21].core_layer 	data[21] 	269400
scalar geant_cost_network.node[21].content_store 	p_hit[21] 	0.057260976176521
scalar geant_cost_network.node[21].content_store 	hits[21] 	16510
scalar geant_cost_network.node[21].content_store 	misses[21] 	271819
scalar geant_cost_network.node[21].content_store 	decision_yes[21] 	724
scalar geant_cost_network.node[21].content_store 	decision_no[21] 	268676
scalar geant_cost_network.node[21].content_store 	decision_ratio[21] 	0.0026874536005939
scalar geant_cost_network.node[21].content_store 	cache_value[21] 	0.45630463497589
scalar geant_cost_network.node[21].content_store 	average_price_of_cache[21] 	7.4565217391304
scalar geant_cost_network.node[21].content_store 	correction_factor[21] 	0.0027225701061802
scalar geant_cost_network.node[21].content_store 	kappa[21] 	1
scalar geant_cost_network.client[0] 	hdistance[0] 	3.7299870387269
scalar geant_cost_network.client[0] 	downloads[0] 	172051
scalar geant_cost_network.client[0] 	avg_time[0] 	0.054792917835
scalar geant_cost_network.client[0] 	interests_sent[0] 	179912
scalar geant_cost_network.client[1] 	hdistance[1] 	2.8983788879474
scalar geant_cost_network.client[1] 	downloads[1] 	178211
scalar geant_cost_network.client[1] 	avg_time[1] 	0.012784630303
scalar geant_cost_network.client[1] 	interests_sent[1] 	179740
scalar geant_cost_network.client[2] 	hdistance[2] 	3.2923430590393
scalar geant_cost_network.client[2] 	downloads[2] 	176611
scalar geant_cost_network.client[2] 	avg_time[2] 	0.01876881459
scalar geant_cost_network.client[2] 	interests_sent[2] 	179571
scalar geant_cost_network.client[3] 	hdistance[3] 	2.3311483640624
scalar geant_cost_network.client[3] 	downloads[3] 	179255
scalar geant_cost_network.client[3] 	avg_time[3] 	0.007821027543
scalar geant_cost_network.client[3] 	interests_sent[3] 	180159
scalar geant_cost_network.client[4] 	hdistance[4] 	2.153992065668
scalar geant_cost_network.client[4] 	downloads[4] 	178717
scalar geant_cost_network.client[4] 	avg_time[4] 	0.005597662576
scalar geant_cost_network.client[4] 	interests_sent[4] 	179189
scalar geant_cost_network.client[5] 	hdistance[5] 	2.2162852421253
scalar geant_cost_network.client[5] 	downloads[5] 	179721
scalar geant_cost_network.client[5] 	avg_time[5] 	0.009200872461
scalar geant_cost_network.client[5] 	interests_sent[5] 	180917
scalar geant_cost_network.client[6] 	hdistance[6] 	2.1517556691455
scalar geant_cost_network.client[6] 	downloads[6] 	179789
scalar geant_cost_network.client[6] 	avg_time[6] 	0.005749690834
scalar geant_cost_network.client[6] 	interests_sent[6] 	179934
scalar geant_cost_network.client[7] 	hdistance[7] 	2.0668552212547
scalar geant_cost_network.client[7] 	downloads[7] 	179612
scalar geant_cost_network.client[7] 	avg_time[7] 	0.004570296122
scalar geant_cost_network.client[7] 	interests_sent[7] 	180208
scalar geant_cost_network.client[8] 	hdistance[8] 	2.5542522321429
scalar geant_cost_network.client[8] 	downloads[8] 	179200
scalar geant_cost_network.client[8] 	avg_time[8] 	0.005066596731
scalar geant_cost_network.client[8] 	interests_sent[8] 	180150
scalar geant_cost_network.client[9] 	hdistance[9] 	2.9904400069691
scalar geant_cost_network.client[9] 	downloads[9] 	177929
scalar geant_cost_network.client[9] 	avg_time[9] 	0.007681076106
scalar geant_cost_network.client[9] 	interests_sent[9] 	179843
scalar geant_cost_network.client[10] 	hdistance[10] 	3.890019648345
scalar geant_cost_network.client[10] 	downloads[10] 	178641
scalar geant_cost_network.client[10] 	avg_time[10] 	0.00950730565
scalar geant_cost_network.client[10] 	interests_sent[10] 	180871
scalar geant_cost_network.client[11] 	hdistance[11] 	3.7106762531371
scalar geant_cost_network.client[11] 	downloads[11] 	176916
scalar geant_cost_network.client[11] 	avg_time[11] 	0.013236506235
scalar geant_cost_network.client[11] 	interests_sent[11] 	179805
scalar geant_cost_network.client[12] 	hdistance[12] 	2.7724520174113
scalar geant_cost_network.client[12] 	downloads[12] 	177356
scalar geant_cost_network.client[12] 	avg_time[12] 	0.012001263799
scalar geant_cost_network.client[12] 	interests_sent[12] 	180034
scalar geant_cost_network.client[13] 	hdistance[13] 	2.7735512681452
scalar geant_cost_network.client[13] 	downloads[13] 	173324
scalar geant_cost_network.client[13] 	avg_time[13] 	0.04384960672
scalar geant_cost_network.client[13] 	interests_sent[13] 	180667
scalar geant_cost_network.client[14] 	hdistance[14] 	2.2282973917539
scalar geant_cost_network.client[14] 	downloads[14] 	177974
scalar geant_cost_network.client[14] 	avg_time[14] 	0.02249399502
scalar geant_cost_network.client[14] 	interests_sent[14] 	180151
scalar geant_cost_network.client[15] 	hdistance[15] 	2.568629430804
scalar geant_cost_network.client[15] 	downloads[15] 	178269
scalar geant_cost_network.client[15] 	avg_time[15] 	0.011299875266
scalar geant_cost_network.client[15] 	interests_sent[15] 	179592
scalar geant_cost_network.client[16] 	hdistance[16] 	3.1642264658296
scalar geant_cost_network.client[16] 	downloads[16] 	175532
scalar geant_cost_network.client[16] 	avg_time[16] 	0.032135410221
scalar geant_cost_network.client[16] 	interests_sent[16] 	179378
scalar geant_cost_network.client[17] 	hdistance[17] 	2.8925575192856
scalar geant_cost_network.client[17] 	downloads[17] 	177723
scalar geant_cost_network.client[17] 	avg_time[17] 	0.014671849361
scalar geant_cost_network.client[17] 	interests_sent[17] 	180241
scalar geant_cost_network.client[18] 	hdistance[18] 	2.3669657286152
scalar geant_cost_network.client[18] 	downloads[18] 	179450
scalar geant_cost_network.client[18] 	avg_time[18] 	0.008648600633
scalar geant_cost_network.client[18] 	interests_sent[18] 	180714
scalar geant_cost_network.client[19] 	hdistance[19] 	3.3375753778683
scalar geant_cost_network.client[19] 	downloads[19] 	178766
scalar geant_cost_network.client[19] 	avg_time[19] 	0.010375093175
scalar geant_cost_network.client[19] 	interests_sent[19] 	180338
scalar geant_cost_network.client[20] 	hdistance[20] 	3.3215846656854
scalar geant_cost_network.client[20] 	downloads[20] 	178006
scalar geant_cost_network.client[20] 	avg_time[20] 	0.011015702604
scalar geant_cost_network.client[20] 	interests_sent[20] 	179601
scalar geant_cost_network.client[21] 	hdistance[21] 	2.9312184401684
scalar geant_cost_network.client[21] 	downloads[21] 	178827
scalar geant_cost_network.client[21] 	avg_time[21] 	0.0121117716
scalar geant_cost_network.client[21] 	interests_sent[21] 	179950
