version 2
run General-2-20141030-19:28:23-15274
attr D fix0.01
attr F nrr
attr R lru
attr a 1
attr configname General
attr csize 1e3
attr ctlg 1e5
attr datetime 20141030-19:28:23
attr experiment General
attr inifile omnetpp.ini
attr iterationvars "$rep=13, $lambda=100, $a=1, $ctlg=1e5, $F=nrr, $ttl=10, $D=fix0.01, $R=lru, $csize=1e3, $window=60, $variance=0.05, $mytime=1800, $kappa=1, $priceratiovalue=10, $pricebits=0"
attr iterationvars2 "$rep=13, $lambda=100, $a=1, $ctlg=1e5, $F=nrr, $ttl=10, $D=fix0.01, $R=lru, $csize=1e3, $window=60, $variance=0.05, $mytime=1800, $kappa=1, $priceratiovalue=10, $pricebits=0, $repetition=0"
attr kappa 1
attr lambda 100
attr measurement "$rep=13, $lambda=100, $a=1, $ctlg=1e5, $F=nrr, $ttl=10, $D=fix0.01, $R=lru, $csize=1e3, $window=60, $variance=0.05, $mytime=1800, $kappa=1, $priceratiovalue=10, $pricebits=0"
attr mytime 1800
attr network networks.ws${rep}_network
attr pricebits 0
attr priceratiovalue 10
attr processid 15274
attr rep 13
attr repetition 0
attr replication #0
attr resultdir results
attr runnumber 2
attr seedset 13
attr ttl 10
attr variance 0.05
attr window 60

scalar . 	a 	1
scalar . 	csize 	1e3
scalar . 	ctlg 	1e5
scalar . 	kappa 	1
scalar . 	lambda 	100
scalar . 	mytime 	1800
scalar . 	pricebits 	0
scalar . 	priceratiovalue 	10
scalar . 	rep 	13
scalar . 	ttl 	10
scalar . 	variance 	0.05
scalar . 	window 	60
scalar ws13_network.content_distribution 	repo-0 	6
scalar ws13_network.content_distribution 	repo-1 	7
scalar ws13_network.content_distribution 	repo-2 	5
scalar ws13_network.content_distribution 	client-0 	18
scalar ws13_network.content_distribution 	client-1 	1
scalar ws13_network.content_distribution 	client-2 	12
scalar ws13_network.content_distribution 	repo-0_card 	33148
scalar ws13_network.content_distribution 	repo-0_price 	0
scalar ws13_network.content_distribution 	repo-1_card 	33483
scalar ws13_network.content_distribution 	repo-1_price 	1
scalar ws13_network.content_distribution 	repo-2_card 	33369
scalar ws13_network.content_distribution 	repo-2_price 	10
scalar ws13_network.statistics 	repo_popularity[0] 	0.3357648681557
scalar ws13_network.statistics 	repo_popularity[1] 	0.38046139947857
scalar ws13_network.statistics 	repo_popularity[2] 	0.28377373236574
scalar ws13_network.statistics 	stabilization_time 	36120
scalar ws13_network.statistics 	p_hit 	0.19886840866507
scalar ws13_network.statistics 	interests 	64020.863636364
scalar ws13_network.statistics 	data 	39486.954545455
scalar ws13_network.statistics 	hdistance 	2.090729440255
scalar ws13_network.statistics 	avg_time 	0.008337979998
scalar ws13_network.statistics 	downloads 	539620
scalar ws13_network.statistics 	total_cost 	876518
scalar ws13_network.statistics 	total_replicas 	100000
scalar ws13_network.statistics 	inner_hit 	0.5190986249583
scalar ws13_network.statistics 	interests_sent 	539740
scalar ws13_network.node[0].core_layer 	interests[0] 	31375
scalar ws13_network.node[0].core_layer 	data[0] 	28498
scalar ws13_network.node[0].core_layer 	repo_int[0] 	259504
scalar ws13_network.node[0].content_store 	p_hit[0] 	0.091697211155378
scalar ws13_network.node[0].content_store 	hits[0] 	2877
scalar ws13_network.node[0].content_store 	misses[0] 	28498
scalar ws13_network.node[0].content_store 	decision_yes[0] 	287
scalar ws13_network.node[0].content_store 	decision_no[0] 	28211
scalar ws13_network.node[0].content_store 	decision_ratio[0] 	0.01007088216717
scalar ws13_network.node[1].core_layer 	interests[1] 	190088
scalar ws13_network.node[1].core_layer 	data[1] 	124025
scalar ws13_network.node[1].content_store 	p_hit[1] 	0.34727599848491
scalar ws13_network.node[1].content_store 	hits[1] 	66013
scalar ws13_network.node[1].content_store 	misses[1] 	124075
scalar ws13_network.node[1].content_store 	decision_yes[1] 	1224
scalar ws13_network.node[1].content_store 	decision_no[1] 	122801
scalar ws13_network.node[1].content_store 	decision_ratio[1] 	0.0098689780286233
scalar ws13_network.node[2].core_layer 	interests[2] 	62266
scalar ws13_network.node[2].core_layer 	data[2] 	43016
scalar ws13_network.node[2].content_store 	p_hit[2] 	0.30912536536794
scalar ws13_network.node[2].content_store 	hits[2] 	19248
scalar ws13_network.node[2].content_store 	misses[2] 	43018
scalar ws13_network.node[2].content_store 	decision_yes[2] 	459
scalar ws13_network.node[2].content_store 	decision_no[2] 	42557
scalar ws13_network.node[2].content_store 	decision_ratio[2] 	0.010670448205319
scalar ws13_network.node[3].core_layer 	interests[3] 	153151
scalar ws13_network.node[3].core_layer 	data[3] 	140104
scalar ws13_network.node[3].content_store 	p_hit[3] 	0.085105549425077
scalar ws13_network.node[3].content_store 	hits[3] 	13034
scalar ws13_network.node[3].content_store 	misses[3] 	140117
scalar ws13_network.node[3].content_store 	decision_yes[3] 	1421
scalar ws13_network.node[3].content_store 	decision_no[3] 	138683
scalar ws13_network.node[3].content_store 	decision_ratio[3] 	0.010142465596985
scalar ws13_network.node[4].core_layer 	interests[4] 	132365
scalar ws13_network.node[4].core_layer 	data[4] 	127614
scalar ws13_network.node[4].content_store 	p_hit[4] 	0.035893174177464
scalar ws13_network.node[4].content_store 	hits[4] 	4751
scalar ws13_network.node[4].content_store 	misses[4] 	127614
scalar ws13_network.node[4].content_store 	decision_yes[4] 	1281
scalar ws13_network.node[4].content_store 	decision_no[4] 	126333
scalar ws13_network.node[4].content_store 	decision_ratio[4] 	0.010038083595844
scalar ws13_network.node[5].core_layer 	interests[5] 	81175
scalar ws13_network.node[5].core_layer 	repo_load[5] 	79211
scalar ws13_network.node[5].core_layer 	data[5] 	0
scalar ws13_network.node[5].content_store 	p_hit[5] 	0.024194641207268
scalar ws13_network.node[5].content_store 	hits[5] 	1964
scalar ws13_network.node[5].content_store 	misses[5] 	79211
scalar ws13_network.node[5].content_store 	decision_yes[5] 	769
scalar ws13_network.node[5].content_store 	decision_no[5] 	78442
scalar ws13_network.node[5].content_store 	decision_ratio[5] 	0.0097082475918749
scalar ws13_network.node[6].core_layer 	interests[6] 	103354
scalar ws13_network.node[6].core_layer 	repo_load[6] 	95885
scalar ws13_network.node[6].core_layer 	data[6] 	572
scalar ws13_network.node[6].content_store 	p_hit[6] 	0.066731814927337
scalar ws13_network.node[6].content_store 	hits[6] 	6897
scalar ws13_network.node[6].content_store 	misses[6] 	96457
scalar ws13_network.node[6].content_store 	decision_yes[6] 	990
scalar ws13_network.node[6].content_store 	decision_no[6] 	95467
scalar ws13_network.node[6].content_store 	decision_ratio[6] 	0.010263640793307
scalar ws13_network.node[7].core_layer 	interests[7] 	87199
scalar ws13_network.node[7].core_layer 	repo_load[7] 	84408
scalar ws13_network.node[7].core_layer 	data[7] 	0
scalar ws13_network.node[7].content_store 	p_hit[7] 	0.032007247789539
scalar ws13_network.node[7].content_store 	hits[7] 	2791
scalar ws13_network.node[7].content_store 	misses[7] 	84408
scalar ws13_network.node[7].content_store 	decision_yes[7] 	838
scalar ws13_network.node[7].content_store 	decision_no[7] 	83570
scalar ws13_network.node[7].content_store 	decision_ratio[7] 	0.0099279689128993
scalar ws13_network.node[8].core_layer 	interests[8] 	32315
scalar ws13_network.node[8].core_layer 	data[8] 	28905
scalar ws13_network.node[8].content_store 	p_hit[8] 	0.10549280519882
scalar ws13_network.node[8].content_store 	hits[8] 	3409
scalar ws13_network.node[8].content_store 	misses[8] 	28906
scalar ws13_network.node[8].content_store 	decision_yes[8] 	299
scalar ws13_network.node[8].content_store 	decision_no[8] 	28606
scalar ws13_network.node[8].content_store 	decision_ratio[8] 	0.010344231101885
scalar ws13_network.node[9].core_layer 	interests[9] 	43695
scalar ws13_network.node[9].core_layer 	data[9] 	34917
scalar ws13_network.node[9].content_store 	p_hit[9] 	0.20086966472136
scalar ws13_network.node[9].content_store 	hits[9] 	8777
scalar ws13_network.node[9].content_store 	misses[9] 	34918
scalar ws13_network.node[9].content_store 	decision_yes[9] 	318
scalar ws13_network.node[9].content_store 	decision_no[9] 	34599
scalar ws13_network.node[9].content_store 	decision_ratio[9] 	0.00910731162471
scalar ws13_network.node[10].core_layer 	interests[10] 	0
scalar ws13_network.node[10].core_layer 	data[10] 	0
scalar ws13_network.node[10].content_store 	p_hit[10] 	-nan
scalar ws13_network.node[10].content_store 	hits[10] 	0
scalar ws13_network.node[10].content_store 	misses[10] 	0
scalar ws13_network.node[10].content_store 	decision_yes[10] 	0
scalar ws13_network.node[10].content_store 	decision_no[10] 	0
scalar ws13_network.node[10].content_store 	decision_ratio[10] 	0
scalar ws13_network.node[11].core_layer 	interests[11] 	33847
scalar ws13_network.node[11].core_layer 	data[11] 	28165
scalar ws13_network.node[11].content_store 	p_hit[11] 	0.16787307590038
scalar ws13_network.node[11].content_store 	hits[11] 	5682
scalar ws13_network.node[11].content_store 	misses[11] 	28165
scalar ws13_network.node[11].content_store 	decision_yes[11] 	306
scalar ws13_network.node[11].content_store 	decision_no[11] 	27859
scalar ws13_network.node[11].content_store 	decision_ratio[11] 	0.010864548198118
scalar ws13_network.node[12].core_layer 	interests[12] 	184791
scalar ws13_network.node[12].core_layer 	data[12] 	122334
scalar ws13_network.node[12].content_store 	p_hit[12] 	0.33780865951264
scalar ws13_network.node[12].content_store 	hits[12] 	62424
scalar ws13_network.node[12].content_store 	misses[12] 	122367
scalar ws13_network.node[12].content_store 	decision_yes[12] 	1234
scalar ws13_network.node[12].content_store 	decision_no[12] 	121100
scalar ws13_network.node[12].content_store 	decision_ratio[12] 	0.010087138489709
scalar ws13_network.node[13].core_layer 	interests[13] 	0
scalar ws13_network.node[13].core_layer 	data[13] 	0
scalar ws13_network.node[13].content_store 	p_hit[13] 	-nan
scalar ws13_network.node[13].content_store 	hits[13] 	0
scalar ws13_network.node[13].content_store 	misses[13] 	0
scalar ws13_network.node[13].content_store 	decision_yes[13] 	0
scalar ws13_network.node[13].content_store 	decision_no[13] 	0
scalar ws13_network.node[13].content_store 	decision_ratio[13] 	0
scalar ws13_network.node[14].core_layer 	interests[14] 	6503
scalar ws13_network.node[14].core_layer 	data[14] 	1353
scalar ws13_network.node[14].content_store 	p_hit[14] 	0.79194218053206
scalar ws13_network.node[14].content_store 	hits[14] 	5150
scalar ws13_network.node[14].content_store 	misses[14] 	1353
scalar ws13_network.node[14].content_store 	decision_yes[14] 	16
scalar ws13_network.node[14].content_store 	decision_no[14] 	1337
scalar ws13_network.node[14].content_store 	decision_ratio[14] 	0.011825572801183
scalar ws13_network.node[15].core_layer 	interests[15] 	46918
scalar ws13_network.node[15].core_layer 	data[15] 	38330
scalar ws13_network.node[15].content_store 	p_hit[15] 	0.18304275544567
scalar ws13_network.node[15].content_store 	hits[15] 	8588
scalar ws13_network.node[15].content_store 	misses[15] 	38330
scalar ws13_network.node[15].content_store 	decision_yes[15] 	353
scalar ws13_network.node[15].content_store 	decision_no[15] 	37977
scalar ws13_network.node[15].content_store 	decision_ratio[15] 	0.0092094964779546
scalar ws13_network.node[16].core_layer 	interests[16] 	0
scalar ws13_network.node[16].core_layer 	data[16] 	0
scalar ws13_network.node[16].content_store 	p_hit[16] 	-nan
scalar ws13_network.node[16].content_store 	hits[16] 	0
scalar ws13_network.node[16].content_store 	misses[16] 	0
scalar ws13_network.node[16].content_store 	decision_yes[16] 	0
scalar ws13_network.node[16].content_store 	decision_no[16] 	0
scalar ws13_network.node[16].content_store 	decision_ratio[16] 	0
scalar ws13_network.node[17].core_layer 	interests[17] 	37513
scalar ws13_network.node[17].core_layer 	data[17] 	30974
scalar ws13_network.node[17].content_store 	p_hit[17] 	0.17428624743422
scalar ws13_network.node[17].content_store 	hits[17] 	6538
scalar ws13_network.node[17].content_store 	misses[17] 	30975
scalar ws13_network.node[17].content_store 	decision_yes[17] 	310
scalar ws13_network.node[17].content_store 	decision_no[17] 	30664
scalar ws13_network.node[17].content_store 	decision_ratio[17] 	0.010008394137018
scalar ws13_network.node[18].core_layer 	interests[18] 	181904
scalar ws13_network.node[18].core_layer 	data[18] 	119906
scalar ws13_network.node[18].content_store 	p_hit[18] 	0.34059174069839
scalar ws13_network.node[18].content_store 	hits[18] 	61955
scalar ws13_network.node[18].content_store 	misses[18] 	119949
scalar ws13_network.node[18].content_store 	decision_yes[18] 	1145
scalar ws13_network.node[18].content_store 	decision_no[18] 	118761
scalar ws13_network.node[18].content_store 	decision_ratio[18] 	0.0095491468316848
scalar ws13_network.node[19].core_layer 	interests[19] 	0
scalar ws13_network.node[19].core_layer 	data[19] 	0
scalar ws13_network.node[19].content_store 	p_hit[19] 	-nan
scalar ws13_network.node[19].content_store 	hits[19] 	0
scalar ws13_network.node[19].content_store 	misses[19] 	0
scalar ws13_network.node[19].content_store 	decision_yes[19] 	0
scalar ws13_network.node[19].content_store 	decision_no[19] 	0
scalar ws13_network.node[19].content_store 	decision_ratio[19] 	0
scalar ws13_network.node[20].core_layer 	interests[20] 	0
scalar ws13_network.node[20].core_layer 	data[20] 	0
scalar ws13_network.node[20].content_store 	p_hit[20] 	-nan
scalar ws13_network.node[20].content_store 	hits[20] 	0
scalar ws13_network.node[20].content_store 	misses[20] 	0
scalar ws13_network.node[20].content_store 	decision_yes[20] 	0
scalar ws13_network.node[20].content_store 	decision_no[20] 	0
scalar ws13_network.node[20].content_store 	decision_ratio[20] 	0
scalar ws13_network.node[21].core_layer 	interests[21] 	0
scalar ws13_network.node[21].core_layer 	data[21] 	0
scalar ws13_network.node[21].content_store 	p_hit[21] 	-nan
scalar ws13_network.node[21].content_store 	hits[21] 	0
scalar ws13_network.node[21].content_store 	misses[21] 	0
scalar ws13_network.node[21].content_store 	decision_yes[21] 	0
scalar ws13_network.node[21].content_store 	decision_no[21] 	0
scalar ws13_network.node[21].content_store 	decision_ratio[21] 	0
scalar ws13_network.client[1] 	hdistance[1] 	2.2944501199254
scalar ws13_network.client[1] 	downloads[1] 	180112
scalar ws13_network.client[1] 	avg_time[1] 	0.00941741491
scalar ws13_network.client[1] 	interests_sent[1] 	180157
scalar ws13_network.client[12] 	hdistance[12] 	1.8553879178507
scalar ws13_network.client[12] 	downloads[12] 	179819
scalar ws13_network.client[12] 	avg_time[12] 	0.007077235174
scalar ws13_network.client[12] 	interests_sent[12] 	179851
scalar ws13_network.client[18] 	hdistance[18] 	2.1223502829889
scalar ws13_network.client[18] 	downloads[18] 	179689
scalar ws13_network.client[18] 	avg_time[18] 	0.008519289912
scalar ws13_network.client[18] 	interests_sent[18] 	179732
