version 2
run General-6-20141031-11:55:14-7940
attr D fix0.01
attr F nrr
attr R lru
attr a 1
attr configname General
attr csize 1e3
attr ctlg 1e5
attr datetime 20141031-11:55:14
attr experiment General
attr inifile omnetpp.ini
attr iterationvars "$rep=18, $lambda=100, $a=1, $ctlg=1e5, $F=nrr, $ttl=10, $D=fix0.01, $R=lru, $csize=1e3, $window=60, $variance=0.05, $mytime=1800, $kappa=1, $priceratiovalue=10, $pricebits=0"
attr iterationvars2 "$rep=18, $lambda=100, $a=1, $ctlg=1e5, $F=nrr, $ttl=10, $D=fix0.01, $R=lru, $csize=1e3, $window=60, $variance=0.05, $mytime=1800, $kappa=1, $priceratiovalue=10, $pricebits=0, $repetition=0"
attr kappa 1
attr lambda 100
attr measurement "$rep=18, $lambda=100, $a=1, $ctlg=1e5, $F=nrr, $ttl=10, $D=fix0.01, $R=lru, $csize=1e3, $window=60, $variance=0.05, $mytime=1800, $kappa=1, $priceratiovalue=10, $pricebits=0"
attr mytime 1800
attr network networks.ws${rep}_network
attr pricebits 0
attr priceratiovalue 10
attr processid 7940
attr rep 18
attr repetition 0
attr replication #0
attr resultdir results
attr runnumber 6
attr seedset 18
attr ttl 10
attr variance 0.05
attr window 60

scalar . 	a 	1
scalar . 	csize 	1e3
scalar . 	ctlg 	1e5
scalar . 	kappa 	1
scalar . 	lambda 	100
scalar . 	mytime 	1800
scalar . 	pricebits 	0
scalar . 	priceratiovalue 	10
scalar . 	rep 	18
scalar . 	ttl 	10
scalar . 	variance 	0.05
scalar . 	window 	60
scalar ws18_network.content_distribution 	repo-0 	13
scalar ws18_network.content_distribution 	repo-1 	7
scalar ws18_network.content_distribution 	repo-2 	8
scalar ws18_network.content_distribution 	client-0 	5
scalar ws18_network.content_distribution 	client-1 	1
scalar ws18_network.content_distribution 	client-2 	16
scalar ws18_network.content_distribution 	repo-0_card 	33458
scalar ws18_network.content_distribution 	repo-0_price 	10
scalar ws18_network.content_distribution 	repo-1_card 	33219
scalar ws18_network.content_distribution 	repo-1_price 	1
scalar ws18_network.content_distribution 	repo-2_card 	33323
scalar ws18_network.content_distribution 	repo-2_price 	0
scalar ws18_network.statistics 	repo_popularity[0] 	0.43323683832893
scalar ws18_network.statistics 	repo_popularity[1] 	0.27229839117188
scalar ws18_network.statistics 	repo_popularity[2] 	0.2944647704992
scalar ws18_network.statistics 	stabilization_time 	36060
scalar ws18_network.statistics 	p_hit 	0.22168987761994
scalar ws18_network.statistics 	interests 	55453.181818182
scalar ws18_network.statistics 	data 	30872.136363636
scalar ws18_network.statistics 	hdistance 	1.7561482856845
scalar ws18_network.statistics 	avg_time 	0.006507308367
scalar ws18_network.statistics 	downloads 	540679
scalar ws18_network.statistics 	total_cost 	1002563
scalar ws18_network.statistics 	total_replicas 	100000
scalar ws18_network.statistics 	inner_hit 	0.50022286791238
scalar ws18_network.statistics 	interests_sent 	540783
scalar ws18_network.node[0].core_layer 	interests[0] 	85368
scalar ws18_network.node[0].core_layer 	data[0] 	71562
scalar ws18_network.node[0].core_layer 	repo_int[0] 	270219
scalar ws18_network.node[0].content_store 	p_hit[0] 	0.16169993440165
scalar ws18_network.node[0].content_store 	hits[0] 	13804
scalar ws18_network.node[0].content_store 	misses[0] 	71564
scalar ws18_network.node[0].content_store 	decision_yes[0] 	705
scalar ws18_network.node[0].content_store 	decision_no[0] 	70857
scalar ws18_network.node[0].content_store 	decision_ratio[0] 	0.0098515972163998
scalar ws18_network.node[1].core_layer 	interests[1] 	213613
scalar ws18_network.node[1].core_layer 	data[1] 	154069
scalar ws18_network.node[1].content_store 	p_hit[1] 	0.27858323229391
scalar ws18_network.node[1].content_store 	hits[1] 	59509
scalar ws18_network.node[1].content_store 	misses[1] 	154104
scalar ws18_network.node[1].content_store 	decision_yes[1] 	1611
scalar ws18_network.node[1].content_store 	decision_no[1] 	152458
scalar ws18_network.node[1].content_store 	decision_ratio[1] 	0.010456353971273
scalar ws18_network.node[2].core_layer 	interests[2] 	12711
scalar ws18_network.node[2].core_layer 	data[2] 	2276
scalar ws18_network.node[2].content_store 	p_hit[2] 	0.82094249075604
scalar ws18_network.node[2].content_store 	hits[2] 	10435
scalar ws18_network.node[2].content_store 	misses[2] 	2276
scalar ws18_network.node[2].content_store 	decision_yes[2] 	12
scalar ws18_network.node[2].content_store 	decision_no[2] 	2264
scalar ws18_network.node[2].content_store 	decision_ratio[2] 	0.0052724077328647
scalar ws18_network.node[3].core_layer 	interests[3] 	95155
scalar ws18_network.node[3].core_layer 	data[3] 	71405
scalar ws18_network.node[3].content_store 	p_hit[3] 	0.24959276969156
scalar ws18_network.node[3].content_store 	hits[3] 	23750
scalar ws18_network.node[3].content_store 	misses[3] 	71405
scalar ws18_network.node[3].content_store 	decision_yes[3] 	719
scalar ws18_network.node[3].content_store 	decision_no[3] 	70686
scalar ws18_network.node[3].content_store 	decision_ratio[3] 	0.010069322876549
scalar ws18_network.node[4].core_layer 	interests[4] 	0
scalar ws18_network.node[4].core_layer 	data[4] 	0
scalar ws18_network.node[4].content_store 	p_hit[4] 	-nan
scalar ws18_network.node[4].content_store 	hits[4] 	0
scalar ws18_network.node[4].content_store 	misses[4] 	0
scalar ws18_network.node[4].content_store 	decision_yes[4] 	0
scalar ws18_network.node[4].content_store 	decision_no[4] 	0
scalar ws18_network.node[4].content_store 	decision_ratio[4] 	0
scalar ws18_network.node[5].core_layer 	interests[5] 	181928
scalar ws18_network.node[5].core_layer 	data[5] 	119472
scalar ws18_network.node[5].content_store 	p_hit[5] 	0.34310826260938
scalar ws18_network.node[5].content_store 	hits[5] 	62421
scalar ws18_network.node[5].content_store 	misses[5] 	119507
scalar ws18_network.node[5].content_store 	decision_yes[5] 	1096
scalar ws18_network.node[5].content_store 	decision_no[5] 	118376
scalar ws18_network.node[5].content_store 	decision_ratio[5] 	0.0091736976027856
scalar ws18_network.node[6].core_layer 	interests[6] 	0
scalar ws18_network.node[6].core_layer 	data[6] 	0
scalar ws18_network.node[6].content_store 	p_hit[6] 	-nan
scalar ws18_network.node[6].content_store 	hits[6] 	0
scalar ws18_network.node[6].content_store 	misses[6] 	0
scalar ws18_network.node[6].content_store 	decision_yes[6] 	0
scalar ws18_network.node[6].content_store 	decision_no[6] 	0
scalar ws18_network.node[6].content_store 	decision_ratio[6] 	0
scalar ws18_network.node[7].core_layer 	interests[7] 	90406
scalar ws18_network.node[7].core_layer 	repo_load[7] 	86853
scalar ws18_network.node[7].core_layer 	data[7] 	0
scalar ws18_network.node[7].content_store 	p_hit[7] 	0.039300488905604
scalar ws18_network.node[7].content_store 	hits[7] 	3553
scalar ws18_network.node[7].content_store 	misses[7] 	86853
scalar ws18_network.node[7].content_store 	decision_yes[7] 	869
scalar ws18_network.node[7].content_store 	decision_no[7] 	85984
scalar ws18_network.node[7].content_store 	decision_ratio[7] 	0.010005411442322
scalar ws18_network.node[8].core_layer 	interests[8] 	131260
scalar ws18_network.node[8].core_layer 	repo_load[8] 	91795
scalar ws18_network.node[8].core_layer 	data[8] 	33767
scalar ws18_network.node[8].content_store 	p_hit[8] 	0.043410025902788
scalar ws18_network.node[8].content_store 	hits[8] 	5698
scalar ws18_network.node[8].content_store 	misses[8] 	125562
scalar ws18_network.node[8].content_store 	decision_yes[8] 	1267
scalar ws18_network.node[8].content_store 	decision_no[8] 	124295
scalar ws18_network.node[8].content_store 	decision_ratio[8] 	0.010090632516207
scalar ws18_network.node[9].core_layer 	interests[9] 	0
scalar ws18_network.node[9].core_layer 	data[9] 	0
scalar ws18_network.node[9].content_store 	p_hit[9] 	-nan
scalar ws18_network.node[9].content_store 	hits[9] 	0
scalar ws18_network.node[9].content_store 	misses[9] 	0
scalar ws18_network.node[9].content_store 	decision_yes[9] 	0
scalar ws18_network.node[9].content_store 	decision_no[9] 	0
scalar ws18_network.node[9].content_store 	decision_ratio[9] 	0
scalar ws18_network.node[10].core_layer 	interests[10] 	68317
scalar ws18_network.node[10].core_layer 	data[10] 	63227
scalar ws18_network.node[10].content_store 	p_hit[10] 	0.074505613536894
scalar ws18_network.node[10].content_store 	hits[10] 	5090
scalar ws18_network.node[10].content_store 	misses[10] 	63227
scalar ws18_network.node[10].content_store 	decision_yes[10] 	652
scalar ws18_network.node[10].content_store 	decision_no[10] 	62575
scalar ws18_network.node[10].content_store 	decision_ratio[10] 	0.010312050231705
scalar ws18_network.node[11].core_layer 	interests[11] 	15093
scalar ws18_network.node[11].core_layer 	data[11] 	1902
scalar ws18_network.node[11].content_store 	p_hit[11] 	0.87398131584178
scalar ws18_network.node[11].content_store 	hits[11] 	13191
scalar ws18_network.node[11].content_store 	misses[11] 	1902
scalar ws18_network.node[11].content_store 	decision_yes[11] 	19
scalar ws18_network.node[11].content_store 	decision_no[11] 	1883
scalar ws18_network.node[11].content_store 	decision_ratio[11] 	0.0099894847528917
scalar ws18_network.node[12].core_layer 	interests[12] 	0
scalar ws18_network.node[12].core_layer 	data[12] 	0
scalar ws18_network.node[12].content_store 	p_hit[12] 	-nan
scalar ws18_network.node[12].content_store 	hits[12] 	0
scalar ws18_network.node[12].content_store 	misses[12] 	0
scalar ws18_network.node[12].content_store 	decision_yes[12] 	0
scalar ws18_network.node[12].content_store 	decision_no[12] 	0
scalar ws18_network.node[12].content_store 	decision_ratio[12] 	0
scalar ws18_network.node[13].core_layer 	interests[13] 	100113
scalar ws18_network.node[13].core_layer 	repo_load[13] 	91571
scalar ws18_network.node[13].core_layer 	data[13] 	3111
scalar ws18_network.node[13].content_store 	p_hit[13] 	0.054248698970164
scalar ws18_network.node[13].content_store 	hits[13] 	5431
scalar ws18_network.node[13].content_store 	misses[13] 	94682
scalar ws18_network.node[13].content_store 	decision_yes[13] 	924
scalar ws18_network.node[13].content_store 	decision_no[13] 	93758
scalar ws18_network.node[13].content_store 	decision_ratio[13] 	0.0097589826999852
scalar ws18_network.node[14].core_layer 	interests[14] 	0
scalar ws18_network.node[14].core_layer 	data[14] 	0
scalar ws18_network.node[14].content_store 	p_hit[14] 	-nan
scalar ws18_network.node[14].content_store 	hits[14] 	0
scalar ws18_network.node[14].content_store 	misses[14] 	0
scalar ws18_network.node[14].content_store 	decision_yes[14] 	0
scalar ws18_network.node[14].content_store 	decision_no[14] 	0
scalar ws18_network.node[14].content_store 	decision_ratio[14] 	0
scalar ws18_network.node[15].core_layer 	interests[15] 	0
scalar ws18_network.node[15].core_layer 	data[15] 	0
scalar ws18_network.node[15].content_store 	p_hit[15] 	-nan
scalar ws18_network.node[15].content_store 	hits[15] 	0
scalar ws18_network.node[15].content_store 	misses[15] 	0
scalar ws18_network.node[15].content_store 	decision_yes[15] 	0
scalar ws18_network.node[15].content_store 	decision_no[15] 	0
scalar ws18_network.node[15].content_store 	decision_ratio[15] 	0
scalar ws18_network.node[16].core_layer 	interests[16] 	181433
scalar ws18_network.node[16].core_layer 	data[16] 	121571
scalar ws18_network.node[16].content_store 	p_hit[16] 	0.32973604581305
scalar ws18_network.node[16].content_store 	hits[16] 	59825
scalar ws18_network.node[16].content_store 	misses[16] 	121608
scalar ws18_network.node[16].content_store 	decision_yes[16] 	1253
scalar ws18_network.node[16].content_store 	decision_no[16] 	120318
scalar ws18_network.node[16].content_store 	decision_ratio[16] 	0.010306734336314
scalar ws18_network.node[17].core_layer 	interests[17] 	44573
scalar ws18_network.node[17].core_layer 	data[17] 	36825
scalar ws18_network.node[17].content_store 	p_hit[17] 	0.17382720481009
scalar ws18_network.node[17].content_store 	hits[17] 	7748
scalar ws18_network.node[17].content_store 	misses[17] 	36825
scalar ws18_network.node[17].content_store 	decision_yes[17] 	376
scalar ws18_network.node[17].content_store 	decision_no[17] 	36449
scalar ws18_network.node[17].content_store 	decision_ratio[17] 	0.010210454854039
scalar ws18_network.node[18].core_layer 	interests[18] 	0
scalar ws18_network.node[18].core_layer 	data[18] 	0
scalar ws18_network.node[18].content_store 	p_hit[18] 	-nan
scalar ws18_network.node[18].content_store 	hits[18] 	0
scalar ws18_network.node[18].content_store 	misses[18] 	0
scalar ws18_network.node[18].content_store 	decision_yes[18] 	0
scalar ws18_network.node[18].content_store 	decision_no[18] 	0
scalar ws18_network.node[18].content_store 	decision_ratio[18] 	0
scalar ws18_network.node[19].core_layer 	interests[19] 	0
scalar ws18_network.node[19].core_layer 	data[19] 	0
scalar ws18_network.node[19].content_store 	p_hit[19] 	-nan
scalar ws18_network.node[19].content_store 	hits[19] 	0
scalar ws18_network.node[19].content_store 	misses[19] 	0
scalar ws18_network.node[19].content_store 	decision_yes[19] 	0
scalar ws18_network.node[19].content_store 	decision_no[19] 	0
scalar ws18_network.node[19].content_store 	decision_ratio[19] 	0
scalar ws18_network.node[20].core_layer 	interests[20] 	0
scalar ws18_network.node[20].core_layer 	data[20] 	0
scalar ws18_network.node[20].content_store 	p_hit[20] 	-nan
scalar ws18_network.node[20].content_store 	hits[20] 	0
scalar ws18_network.node[20].content_store 	misses[20] 	0
scalar ws18_network.node[20].content_store 	decision_yes[20] 	0
scalar ws18_network.node[20].content_store 	decision_no[20] 	0
scalar ws18_network.node[20].content_store 	decision_ratio[20] 	0
scalar ws18_network.node[21].core_layer 	interests[21] 	0
scalar ws18_network.node[21].core_layer 	data[21] 	0
scalar ws18_network.node[21].content_store 	p_hit[21] 	-nan
scalar ws18_network.node[21].content_store 	hits[21] 	0
scalar ws18_network.node[21].content_store 	misses[21] 	0
scalar ws18_network.node[21].content_store 	decision_yes[21] 	0
scalar ws18_network.node[21].content_store 	decision_no[21] 	0
scalar ws18_network.node[21].content_store 	decision_ratio[21] 	0
scalar ws18_network.client[1] 	hdistance[1] 	1.4087403884617
scalar ws18_network.client[1] 	downloads[1] 	179992
scalar ws18_network.client[1] 	avg_time[1] 	0.004658164118
scalar ws18_network.client[1] 	interests_sent[1] 	180024
scalar ws18_network.client[5] 	hdistance[5] 	2.1115005647077
scalar ws18_network.client[5] 	downloads[5] 	179739
scalar ws18_network.client[5] 	avg_time[5] 	0.008370602906
scalar ws18_network.client[5] 	interests_sent[5] 	179774
scalar ws18_network.client[16] 	hdistance[16] 	1.748203903884
scalar ws18_network.client[16] 	downloads[16] 	180948
scalar ws18_network.client[16] 	avg_time[16] 	0.006493158077
scalar ws18_network.client[16] 	interests_sent[16] 	180985
