version 2
run General-2-20141030-18:59:52-4988
attr D fix0.01
attr F nrr
attr R lru
attr a 1
attr configname General
attr csize 1e3
attr ctlg 1e5
attr datetime 20141030-18:59:52
attr experiment General
attr inifile omnetpp.ini
attr iterationvars "$rep=5, $lambda=100, $a=1, $ctlg=1e5, $F=nrr, $ttl=10, $D=fix0.01, $R=lru, $csize=1e3, $window=60, $variance=0.05, $mytime=1800, $kappa=1, $priceratiovalue=10, $pricebits=0"
attr iterationvars2 "$rep=5, $lambda=100, $a=1, $ctlg=1e5, $F=nrr, $ttl=10, $D=fix0.01, $R=lru, $csize=1e3, $window=60, $variance=0.05, $mytime=1800, $kappa=1, $priceratiovalue=10, $pricebits=0, $repetition=0"
attr kappa 1
attr lambda 100
attr measurement "$rep=5, $lambda=100, $a=1, $ctlg=1e5, $F=nrr, $ttl=10, $D=fix0.01, $R=lru, $csize=1e3, $window=60, $variance=0.05, $mytime=1800, $kappa=1, $priceratiovalue=10, $pricebits=0"
attr mytime 1800
attr network networks.ws${rep}_network
attr pricebits 0
attr priceratiovalue 10
attr processid 4988
attr rep 5
attr repetition 0
attr replication #0
attr resultdir results
attr runnumber 2
attr seedset 5
attr ttl 10
attr variance 0.05
attr window 60

scalar . 	a 	1
scalar . 	csize 	1e3
scalar . 	ctlg 	1e5
scalar . 	kappa 	1
scalar . 	lambda 	100
scalar . 	mytime 	1800
scalar . 	pricebits 	0
scalar . 	priceratiovalue 	10
scalar . 	rep 	5
scalar . 	ttl 	10
scalar . 	variance 	0.05
scalar . 	window 	60
scalar ws5_network.content_distribution 	repo-0 	9
scalar ws5_network.content_distribution 	repo-1 	14
scalar ws5_network.content_distribution 	repo-2 	5
scalar ws5_network.content_distribution 	client-0 	4
scalar ws5_network.content_distribution 	client-1 	9
scalar ws5_network.content_distribution 	client-2 	0
scalar ws5_network.content_distribution 	repo-0_card 	33098
scalar ws5_network.content_distribution 	repo-0_price 	0
scalar ws5_network.content_distribution 	repo-1_card 	33495
scalar ws5_network.content_distribution 	repo-1_price 	10
scalar ws5_network.content_distribution 	repo-2_card 	33407
scalar ws5_network.content_distribution 	repo-2_price 	1
scalar ws5_network.statistics 	repo_popularity[0] 	0.31037770261398
scalar ws5_network.statistics 	repo_popularity[1] 	0.29913869324176
scalar ws5_network.statistics 	repo_popularity[2] 	0.39048360414427
scalar ws5_network.statistics 	stabilization_time 	36060
scalar ws5_network.statistics 	p_hit 	0.22647856557401
scalar ws5_network.statistics 	interests 	47360.090909091
scalar ws5_network.statistics 	data 	22825.136363636
scalar ws5_network.statistics 	hdistance 	1.4931350674327
scalar ws5_network.statistics 	avg_time 	0.004819256078
scalar ws5_network.statistics 	downloads 	539682
scalar ws5_network.statistics 	total_cost 	1038504
scalar ws5_network.statistics 	total_replicas 	100000
scalar ws5_network.statistics 	inner_hit 	0.43729640788464
scalar ws5_network.statistics 	interests_sent 	539769
scalar ws5_network.node[0].core_layer 	interests[0] 	259321
scalar ws5_network.node[0].core_layer 	data[0] 	196782
scalar ws5_network.node[0].core_layer 	repo_int[0] 	303681
scalar ws5_network.node[0].content_store 	p_hit[0] 	0.2409908954539
scalar ws5_network.node[0].content_store 	hits[0] 	62494
scalar ws5_network.node[0].content_store 	misses[0] 	196827
scalar ws5_network.node[0].content_store 	decision_yes[0] 	1905
scalar ws5_network.node[0].content_store 	decision_no[0] 	194877
scalar ws5_network.node[0].content_store 	decision_ratio[0] 	0.009680763484465
scalar ws5_network.node[1].core_layer 	interests[1] 	0
scalar ws5_network.node[1].core_layer 	data[1] 	0
scalar ws5_network.node[1].content_store 	p_hit[1] 	-nan
scalar ws5_network.node[1].content_store 	hits[1] 	0
scalar ws5_network.node[1].content_store 	misses[1] 	0
scalar ws5_network.node[1].content_store 	decision_yes[1] 	0
scalar ws5_network.node[1].content_store 	decision_no[1] 	0
scalar ws5_network.node[1].content_store 	decision_ratio[1] 	0
scalar ws5_network.node[2].core_layer 	interests[2] 	27388
scalar ws5_network.node[2].core_layer 	data[2] 	3605
scalar ws5_network.node[2].content_store 	p_hit[2] 	0.86837301007741
scalar ws5_network.node[2].content_store 	hits[2] 	23783
scalar ws5_network.node[2].content_store 	misses[2] 	3605
scalar ws5_network.node[2].content_store 	decision_yes[2] 	30
scalar ws5_network.node[2].content_store 	decision_no[2] 	3575
scalar ws5_network.node[2].content_store 	decision_ratio[2] 	0.0083217753120666
scalar ws5_network.node[3].core_layer 	interests[3] 	0
scalar ws5_network.node[3].core_layer 	data[3] 	0
scalar ws5_network.node[3].content_store 	p_hit[3] 	-nan
scalar ws5_network.node[3].content_store 	hits[3] 	0
scalar ws5_network.node[3].content_store 	misses[3] 	0
scalar ws5_network.node[3].content_store 	decision_yes[3] 	0
scalar ws5_network.node[3].content_store 	decision_no[3] 	0
scalar ws5_network.node[3].content_store 	decision_ratio[3] 	0
scalar ws5_network.node[4].core_layer 	interests[4] 	185379
scalar ws5_network.node[4].core_layer 	data[4] 	120479
scalar ws5_network.node[4].content_store 	p_hit[4] 	0.34991557835569
scalar ws5_network.node[4].content_store 	hits[4] 	64867
scalar ws5_network.node[4].content_store 	misses[4] 	120512
scalar ws5_network.node[4].content_store 	decision_yes[4] 	1253
scalar ws5_network.node[4].content_store 	decision_no[4] 	119226
scalar ws5_network.node[4].content_store 	decision_ratio[4] 	0.010400152723711
scalar ws5_network.node[5].core_layer 	interests[5] 	209107
scalar ws5_network.node[5].core_layer 	repo_load[5] 	100624
scalar ws5_network.node[5].core_layer 	data[5] 	99710
scalar ws5_network.node[5].content_store 	p_hit[5] 	0.04191155724103
scalar ws5_network.node[5].content_store 	hits[5] 	8764
scalar ws5_network.node[5].content_store 	misses[5] 	200343
scalar ws5_network.node[5].content_store 	decision_yes[5] 	2007
scalar ws5_network.node[5].content_store 	decision_no[5] 	198327
scalar ws5_network.node[5].content_store 	decision_ratio[5] 	0.010018269489952
scalar ws5_network.node[6].core_layer 	interests[6] 	0
scalar ws5_network.node[6].core_layer 	data[6] 	0
scalar ws5_network.node[6].content_store 	p_hit[6] 	-nan
scalar ws5_network.node[6].content_store 	hits[6] 	0
scalar ws5_network.node[6].content_store 	misses[6] 	0
scalar ws5_network.node[6].content_store 	decision_yes[6] 	0
scalar ws5_network.node[6].content_store 	decision_no[6] 	0
scalar ws5_network.node[6].content_store 	decision_ratio[6] 	0
scalar ws5_network.node[7].core_layer 	interests[7] 	0
scalar ws5_network.node[7].core_layer 	data[7] 	0
scalar ws5_network.node[7].content_store 	p_hit[7] 	-nan
scalar ws5_network.node[7].content_store 	hits[7] 	0
scalar ws5_network.node[7].content_store 	misses[7] 	0
scalar ws5_network.node[7].content_store 	decision_yes[7] 	0
scalar ws5_network.node[7].content_store 	decision_no[7] 	0
scalar ws5_network.node[7].content_store 	decision_ratio[7] 	0
scalar ws5_network.node[8].core_layer 	interests[8] 	0
scalar ws5_network.node[8].core_layer 	data[8] 	0
scalar ws5_network.node[8].content_store 	p_hit[8] 	-nan
scalar ws5_network.node[8].content_store 	hits[8] 	0
scalar ws5_network.node[8].content_store 	misses[8] 	0
scalar ws5_network.node[8].content_store 	decision_yes[8] 	0
scalar ws5_network.node[8].content_store 	decision_no[8] 	0
scalar ws5_network.node[8].content_store 	decision_ratio[8] 	0
scalar ws5_network.node[9].core_layer 	interests[9] 	261017
scalar ws5_network.node[9].core_layer 	repo_load[9] 	109269
scalar ws5_network.node[9].core_layer 	data[9] 	81577
scalar ws5_network.node[9].content_store 	p_hit[9] 	0.26872962297475
scalar ws5_network.node[9].content_store 	hits[9] 	70143
scalar ws5_network.node[9].content_store 	misses[9] 	190874
scalar ws5_network.node[9].content_store 	decision_yes[9] 	1902
scalar ws5_network.node[9].content_store 	decision_no[9] 	188944
scalar ws5_network.node[9].content_store 	decision_ratio[9] 	0.0099661507183803
scalar ws5_network.node[10].core_layer 	interests[10] 	0
scalar ws5_network.node[10].core_layer 	data[10] 	0
scalar ws5_network.node[10].content_store 	p_hit[10] 	-nan
scalar ws5_network.node[10].content_store 	hits[10] 	0
scalar ws5_network.node[10].content_store 	misses[10] 	0
scalar ws5_network.node[10].content_store 	decision_yes[10] 	0
scalar ws5_network.node[10].content_store 	decision_no[10] 	0
scalar ws5_network.node[10].content_store 	decision_ratio[10] 	0
scalar ws5_network.node[11].core_layer 	interests[11] 	0
scalar ws5_network.node[11].core_layer 	data[11] 	0
scalar ws5_network.node[11].content_store 	p_hit[11] 	-nan
scalar ws5_network.node[11].content_store 	hits[11] 	0
scalar ws5_network.node[11].content_store 	misses[11] 	0
scalar ws5_network.node[11].content_store 	decision_yes[11] 	0
scalar ws5_network.node[11].content_store 	decision_no[11] 	0
scalar ws5_network.node[11].content_store 	decision_ratio[11] 	0
scalar ws5_network.node[12].core_layer 	interests[12] 	0
scalar ws5_network.node[12].core_layer 	data[12] 	0
scalar ws5_network.node[12].content_store 	p_hit[12] 	-nan
scalar ws5_network.node[12].content_store 	hits[12] 	0
scalar ws5_network.node[12].content_store 	misses[12] 	0
scalar ws5_network.node[12].content_store 	decision_yes[12] 	0
scalar ws5_network.node[12].content_store 	decision_no[12] 	0
scalar ws5_network.node[12].content_store 	decision_ratio[12] 	0
scalar ws5_network.node[13].core_layer 	interests[13] 	0
scalar ws5_network.node[13].core_layer 	data[13] 	0
scalar ws5_network.node[13].content_store 	p_hit[13] 	-nan
scalar ws5_network.node[13].content_store 	hits[13] 	0
scalar ws5_network.node[13].content_store 	misses[13] 	0
scalar ws5_network.node[13].content_store 	decision_yes[13] 	0
scalar ws5_network.node[13].content_store 	decision_no[13] 	0
scalar ws5_network.node[13].content_store 	decision_ratio[13] 	0
scalar ws5_network.node[14].core_layer 	interests[14] 	99710
scalar ws5_network.node[14].core_layer 	repo_load[14] 	93788
scalar ws5_network.node[14].core_layer 	data[14] 	0
scalar ws5_network.node[14].content_store 	p_hit[14] 	0.059392237488717
scalar ws5_network.node[14].content_store 	hits[14] 	5922
scalar ws5_network.node[14].content_store 	misses[14] 	93788
scalar ws5_network.node[14].content_store 	decision_yes[14] 	921
scalar ws5_network.node[14].content_store 	decision_no[14] 	92867
scalar ws5_network.node[14].content_store 	decision_ratio[14] 	0.0098200196187145
scalar ws5_network.node[15].core_layer 	interests[15] 	0
scalar ws5_network.node[15].core_layer 	data[15] 	0
scalar ws5_network.node[15].content_store 	p_hit[15] 	-nan
scalar ws5_network.node[15].content_store 	hits[15] 	0
scalar ws5_network.node[15].content_store 	misses[15] 	0
scalar ws5_network.node[15].content_store 	decision_yes[15] 	0
scalar ws5_network.node[15].content_store 	decision_no[15] 	0
scalar ws5_network.node[15].content_store 	decision_ratio[15] 	0
scalar ws5_network.node[16].core_layer 	interests[16] 	0
scalar ws5_network.node[16].core_layer 	data[16] 	0
scalar ws5_network.node[16].content_store 	p_hit[16] 	-nan
scalar ws5_network.node[16].content_store 	hits[16] 	0
scalar ws5_network.node[16].content_store 	misses[16] 	0
scalar ws5_network.node[16].content_store 	decision_yes[16] 	0
scalar ws5_network.node[16].content_store 	decision_no[16] 	0
scalar ws5_network.node[16].content_store 	decision_ratio[16] 	0
scalar ws5_network.node[17].core_layer 	interests[17] 	0
scalar ws5_network.node[17].core_layer 	data[17] 	0
scalar ws5_network.node[17].content_store 	p_hit[17] 	-nan
scalar ws5_network.node[17].content_store 	hits[17] 	0
scalar ws5_network.node[17].content_store 	misses[17] 	0
scalar ws5_network.node[17].content_store 	decision_yes[17] 	0
scalar ws5_network.node[17].content_store 	decision_no[17] 	0
scalar ws5_network.node[17].content_store 	decision_ratio[17] 	0
scalar ws5_network.node[18].core_layer 	interests[18] 	0
scalar ws5_network.node[18].core_layer 	data[18] 	0
scalar ws5_network.node[18].content_store 	p_hit[18] 	-nan
scalar ws5_network.node[18].content_store 	hits[18] 	0
scalar ws5_network.node[18].content_store 	misses[18] 	0
scalar ws5_network.node[18].content_store 	decision_yes[18] 	0
scalar ws5_network.node[18].content_store 	decision_no[18] 	0
scalar ws5_network.node[18].content_store 	decision_ratio[18] 	0
scalar ws5_network.node[19].core_layer 	interests[19] 	0
scalar ws5_network.node[19].core_layer 	data[19] 	0
scalar ws5_network.node[19].content_store 	p_hit[19] 	-nan
scalar ws5_network.node[19].content_store 	hits[19] 	0
scalar ws5_network.node[19].content_store 	misses[19] 	0
scalar ws5_network.node[19].content_store 	decision_yes[19] 	0
scalar ws5_network.node[19].content_store 	decision_no[19] 	0
scalar ws5_network.node[19].content_store 	decision_ratio[19] 	0
scalar ws5_network.node[20].core_layer 	interests[20] 	0
scalar ws5_network.node[20].core_layer 	data[20] 	0
scalar ws5_network.node[20].content_store 	p_hit[20] 	-nan
scalar ws5_network.node[20].content_store 	hits[20] 	0
scalar ws5_network.node[20].content_store 	misses[20] 	0
scalar ws5_network.node[20].content_store 	decision_yes[20] 	0
scalar ws5_network.node[20].content_store 	decision_no[20] 	0
scalar ws5_network.node[20].content_store 	decision_ratio[20] 	0
scalar ws5_network.node[21].core_layer 	interests[21] 	0
scalar ws5_network.node[21].core_layer 	data[21] 	0
scalar ws5_network.node[21].content_store 	p_hit[21] 	-nan
scalar ws5_network.node[21].content_store 	hits[21] 	0
scalar ws5_network.node[21].content_store 	misses[21] 	0
scalar ws5_network.node[21].content_store 	decision_yes[21] 	0
scalar ws5_network.node[21].content_store 	decision_no[21] 	0
scalar ws5_network.node[21].content_store 	decision_ratio[21] 	0
scalar ws5_network.client[0] 	hdistance[0] 	1.4289453357265
scalar ws5_network.client[0] 	downloads[0] 	179953
scalar ws5_network.client[0] 	avg_time[0] 	0.004541392814
scalar ws5_network.client[0] 	interests_sent[0] 	179979
scalar ws5_network.client[4] 	hdistance[4] 	1.4167525500398
scalar ws5_network.client[4] 	downloads[4] 	179507
scalar ws5_network.client[4] 	avg_time[4] 	0.004476215908
scalar ws5_network.client[4] 	interests_sent[4] 	179540
scalar ws5_network.client[9] 	hdistance[9] 	1.6337073165318
scalar ws5_network.client[9] 	downloads[9] 	180222
scalar ws5_network.client[9] 	avg_time[9] 	0.005440159514
scalar ws5_network.client[9] 	interests_sent[9] 	180250
