version 2
run General-10-20141030-18:39:37-30797
attr D fix0.01
attr F nrr
attr R lru
attr a 1
attr configname General
attr csize 1e3
attr ctlg 1e5
attr datetime 20141030-18:39:37
attr experiment General
attr inifile omnetpp.ini
attr iterationvars "$rep=11, $lambda=100, $a=1, $ctlg=1e5, $F=nrr, $ttl=10, $D=fix0.01, $R=lru, $csize=1e3, $window=60, $variance=0.05, $mytime=1800, $kappa=1, $priceratiovalue=10, $pricebits=0"
attr iterationvars2 "$rep=11, $lambda=100, $a=1, $ctlg=1e5, $F=nrr, $ttl=10, $D=fix0.01, $R=lru, $csize=1e3, $window=60, $variance=0.05, $mytime=1800, $kappa=1, $priceratiovalue=10, $pricebits=0, $repetition=0"
attr kappa 1
attr lambda 100
attr measurement "$rep=11, $lambda=100, $a=1, $ctlg=1e5, $F=nrr, $ttl=10, $D=fix0.01, $R=lru, $csize=1e3, $window=60, $variance=0.05, $mytime=1800, $kappa=1, $priceratiovalue=10, $pricebits=0"
attr mytime 1800
attr network networks.ws${rep}_network
attr pricebits 0
attr priceratiovalue 10
attr processid 30797
attr rep 11
attr repetition 0
attr replication #0
attr resultdir results
attr runnumber 10
attr seedset 11
attr ttl 10
attr variance 0.05
attr window 60

scalar . 	a 	1
scalar . 	csize 	1e3
scalar . 	ctlg 	1e5
scalar . 	kappa 	1
scalar . 	lambda 	100
scalar . 	mytime 	1800
scalar . 	pricebits 	0
scalar . 	priceratiovalue 	10
scalar . 	rep 	11
scalar . 	ttl 	10
scalar . 	variance 	0.05
scalar . 	window 	60
scalar ws11_network.content_distribution 	repo-0 	1
scalar ws11_network.content_distribution 	repo-1 	10
scalar ws11_network.content_distribution 	repo-2 	9
scalar ws11_network.content_distribution 	client-0 	4
scalar ws11_network.content_distribution 	client-1 	3
scalar ws11_network.content_distribution 	client-2 	5
scalar ws11_network.content_distribution 	repo-0_card 	33091
scalar ws11_network.content_distribution 	repo-0_price 	10
scalar ws11_network.content_distribution 	repo-1_card 	33552
scalar ws11_network.content_distribution 	repo-1_price 	1
scalar ws11_network.content_distribution 	repo-2_card 	33357
scalar ws11_network.content_distribution 	repo-2_price 	0
scalar ws11_network.statistics 	repo_popularity[0] 	0.34138276193578
scalar ws11_network.statistics 	repo_popularity[1] 	0.30435585390103
scalar ws11_network.statistics 	repo_popularity[2] 	0.3542613841632
scalar ws11_network.statistics 	stabilization_time 	36120
scalar ws11_network.statistics 	p_hit 	0.2378968529687
scalar ws11_network.statistics 	interests 	49065
scalar ws11_network.statistics 	data 	24563.227272727
scalar ws11_network.statistics 	hdistance 	1.5259824222776
scalar ws11_network.statistics 	avg_time 	0.005192439584
scalar ws11_network.statistics 	downloads 	538954
scalar ws11_network.statistics 	total_cost 	1118097
scalar ws11_network.statistics 	total_replicas 	100000
scalar ws11_network.statistics 	inner_hit 	0.47650263287776
scalar ws11_network.statistics 	interests_sent 	539039
scalar ws11_network.node[0].core_layer 	interests[0] 	0
scalar ws11_network.node[0].core_layer 	data[0] 	0
scalar ws11_network.node[0].core_layer 	repo_int[0] 	282141
scalar ws11_network.node[0].content_store 	p_hit[0] 	-nan
scalar ws11_network.node[0].content_store 	hits[0] 	0
scalar ws11_network.node[0].content_store 	misses[0] 	0
scalar ws11_network.node[0].content_store 	decision_yes[0] 	0
scalar ws11_network.node[0].content_store 	decision_no[0] 	0
scalar ws11_network.node[0].content_store 	decision_ratio[0] 	0
scalar ws11_network.node[1].core_layer 	interests[1] 	120744
scalar ws11_network.node[1].core_layer 	repo_load[1] 	102574
scalar ws11_network.node[1].core_layer 	data[1] 	3170
scalar ws11_network.node[1].content_store 	p_hit[1] 	0.12422977539257
scalar ws11_network.node[1].content_store 	hits[1] 	15000
scalar ws11_network.node[1].content_store 	misses[1] 	105744
scalar ws11_network.node[1].content_store 	decision_yes[1] 	1059
scalar ws11_network.node[1].content_store 	decision_no[1] 	104685
scalar ws11_network.node[1].content_store 	decision_ratio[1] 	0.010014752610077
scalar ws11_network.node[2].core_layer 	interests[2] 	0
scalar ws11_network.node[2].core_layer 	data[2] 	0
scalar ws11_network.node[2].content_store 	p_hit[2] 	-nan
scalar ws11_network.node[2].content_store 	hits[2] 	0
scalar ws11_network.node[2].content_store 	misses[2] 	0
scalar ws11_network.node[2].content_store 	decision_yes[2] 	0
scalar ws11_network.node[2].content_store 	decision_no[2] 	0
scalar ws11_network.node[2].content_store 	decision_ratio[2] 	0
scalar ws11_network.node[3].core_layer 	interests[3] 	179864
scalar ws11_network.node[3].core_layer 	data[3] 	118914
scalar ws11_network.node[3].content_store 	p_hit[3] 	0.33872259040164
scalar ws11_network.node[3].content_store 	hits[3] 	60924
scalar ws11_network.node[3].content_store 	misses[3] 	118940
scalar ws11_network.node[3].content_store 	decision_yes[3] 	1156
scalar ws11_network.node[3].content_store 	decision_no[3] 	117758
scalar ws11_network.node[3].content_store 	decision_ratio[3] 	0.0097213111996905
scalar ws11_network.node[4].core_layer 	interests[4] 	219955
scalar ws11_network.node[4].core_layer 	data[4] 	154537
scalar ws11_network.node[4].content_store 	p_hit[4] 	0.29724261780819
scalar ws11_network.node[4].content_store 	hits[4] 	65380
scalar ws11_network.node[4].content_store 	misses[4] 	154575
scalar ws11_network.node[4].content_store 	decision_yes[4] 	1542
scalar ws11_network.node[4].content_store 	decision_no[4] 	152995
scalar ws11_network.node[4].content_store 	decision_ratio[4] 	0.0099781929246718
scalar ws11_network.node[5].core_layer 	interests[5] 	230148
scalar ws11_network.node[5].core_layer 	data[5] 	161759
scalar ws11_network.node[5].content_store 	p_hit[5] 	0.29698715609086
scalar ws11_network.node[5].content_store 	hits[5] 	68351
scalar ws11_network.node[5].content_store 	misses[5] 	161797
scalar ws11_network.node[5].content_store 	decision_yes[5] 	1646
scalar ws11_network.node[5].content_store 	decision_no[5] 	160113
scalar ws11_network.node[5].content_store 	decision_ratio[5] 	0.010175631649553
scalar ws11_network.node[6].core_layer 	interests[6] 	21380
scalar ws11_network.node[6].core_layer 	data[6] 	3968
scalar ws11_network.node[6].content_store 	p_hit[6] 	0.81426566884939
scalar ws11_network.node[6].content_store 	hits[6] 	17409
scalar ws11_network.node[6].content_store 	misses[6] 	3971
scalar ws11_network.node[6].content_store 	decision_yes[6] 	38
scalar ws11_network.node[6].content_store 	decision_no[6] 	3930
scalar ws11_network.node[6].content_store 	decision_ratio[6] 	0.0095766129032258
scalar ws11_network.node[7].core_layer 	interests[7] 	37688
scalar ws11_network.node[7].core_layer 	data[7] 	30586
scalar ws11_network.node[7].content_store 	p_hit[7] 	0.18844194438548
scalar ws11_network.node[7].content_store 	hits[7] 	7102
scalar ws11_network.node[7].content_store 	misses[7] 	30586
scalar ws11_network.node[7].content_store 	decision_yes[7] 	286
scalar ws11_network.node[7].content_store 	decision_no[7] 	30300
scalar ws11_network.node[7].content_store 	decision_ratio[7] 	0.0093506833191656
scalar ws11_network.node[8].core_layer 	interests[8] 	15583
scalar ws11_network.node[8].core_layer 	data[8] 	5025
scalar ws11_network.node[8].content_store 	p_hit[8] 	0.67753320926651
scalar ws11_network.node[8].content_store 	hits[8] 	10558
scalar ws11_network.node[8].content_store 	misses[8] 	5025
scalar ws11_network.node[8].content_store 	decision_yes[8] 	53
scalar ws11_network.node[8].content_store 	decision_no[8] 	4972
scalar ws11_network.node[8].content_store 	decision_ratio[8] 	0.010547263681592
scalar ws11_network.node[9].core_layer 	interests[9] 	124934
scalar ws11_network.node[9].core_layer 	repo_load[9] 	87210
scalar ws11_network.node[9].core_layer 	data[9] 	32066
scalar ws11_network.node[9].content_store 	p_hit[9] 	0.045287912017545
scalar ws11_network.node[9].content_store 	hits[9] 	5658
scalar ws11_network.node[9].content_store 	misses[9] 	119276
scalar ws11_network.node[9].content_store 	decision_yes[9] 	1148
scalar ws11_network.node[9].content_store 	decision_no[9] 	118128
scalar ws11_network.node[9].content_store 	decision_ratio[9] 	0.0096247359066367
scalar ws11_network.node[10].core_layer 	interests[10] 	129134
scalar ws11_network.node[10].core_layer 	repo_load[10] 	92357
scalar ws11_network.node[10].core_layer 	data[10] 	30366
scalar ws11_network.node[10].content_store 	p_hit[10] 	0.049646104046959
scalar ws11_network.node[10].content_store 	hits[10] 	6411
scalar ws11_network.node[10].content_store 	misses[10] 	122723
scalar ws11_network.node[10].content_store 	decision_yes[10] 	1178
scalar ws11_network.node[10].content_store 	decision_no[10] 	121545
scalar ws11_network.node[10].content_store 	decision_ratio[10] 	0.0095988527007977
scalar ws11_network.node[11].core_layer 	interests[11] 	0
scalar ws11_network.node[11].core_layer 	data[11] 	0
scalar ws11_network.node[11].content_store 	p_hit[11] 	-nan
scalar ws11_network.node[11].content_store 	hits[11] 	0
scalar ws11_network.node[11].content_store 	misses[11] 	0
scalar ws11_network.node[11].content_store 	decision_yes[11] 	0
scalar ws11_network.node[11].content_store 	decision_no[11] 	0
scalar ws11_network.node[11].content_store 	decision_ratio[11] 	0
scalar ws11_network.node[12].core_layer 	interests[12] 	0
scalar ws11_network.node[12].core_layer 	data[12] 	0
scalar ws11_network.node[12].content_store 	p_hit[12] 	-nan
scalar ws11_network.node[12].content_store 	hits[12] 	0
scalar ws11_network.node[12].content_store 	misses[12] 	0
scalar ws11_network.node[12].content_store 	decision_yes[12] 	0
scalar ws11_network.node[12].content_store 	decision_no[12] 	0
scalar ws11_network.node[12].content_store 	decision_ratio[12] 	0
scalar ws11_network.node[13].core_layer 	interests[13] 	0
scalar ws11_network.node[13].core_layer 	data[13] 	0
scalar ws11_network.node[13].content_store 	p_hit[13] 	-nan
scalar ws11_network.node[13].content_store 	hits[13] 	0
scalar ws11_network.node[13].content_store 	misses[13] 	0
scalar ws11_network.node[13].content_store 	decision_yes[13] 	0
scalar ws11_network.node[13].content_store 	decision_no[13] 	0
scalar ws11_network.node[13].content_store 	decision_ratio[13] 	0
scalar ws11_network.node[14].core_layer 	interests[14] 	0
scalar ws11_network.node[14].core_layer 	data[14] 	0
scalar ws11_network.node[14].content_store 	p_hit[14] 	-nan
scalar ws11_network.node[14].content_store 	hits[14] 	0
scalar ws11_network.node[14].content_store 	misses[14] 	0
scalar ws11_network.node[14].content_store 	decision_yes[14] 	0
scalar ws11_network.node[14].content_store 	decision_no[14] 	0
scalar ws11_network.node[14].content_store 	decision_ratio[14] 	0
scalar ws11_network.node[15].core_layer 	interests[15] 	0
scalar ws11_network.node[15].core_layer 	data[15] 	0
scalar ws11_network.node[15].content_store 	p_hit[15] 	-nan
scalar ws11_network.node[15].content_store 	hits[15] 	0
scalar ws11_network.node[15].content_store 	misses[15] 	0
scalar ws11_network.node[15].content_store 	decision_yes[15] 	0
scalar ws11_network.node[15].content_store 	decision_no[15] 	0
scalar ws11_network.node[15].content_store 	decision_ratio[15] 	0
scalar ws11_network.node[16].core_layer 	interests[16] 	0
scalar ws11_network.node[16].core_layer 	data[16] 	0
scalar ws11_network.node[16].content_store 	p_hit[16] 	-nan
scalar ws11_network.node[16].content_store 	hits[16] 	0
scalar ws11_network.node[16].content_store 	misses[16] 	0
scalar ws11_network.node[16].content_store 	decision_yes[16] 	0
scalar ws11_network.node[16].content_store 	decision_no[16] 	0
scalar ws11_network.node[16].content_store 	decision_ratio[16] 	0
scalar ws11_network.node[17].core_layer 	interests[17] 	0
scalar ws11_network.node[17].core_layer 	data[17] 	0
scalar ws11_network.node[17].content_store 	p_hit[17] 	-nan
scalar ws11_network.node[17].content_store 	hits[17] 	0
scalar ws11_network.node[17].content_store 	misses[17] 	0
scalar ws11_network.node[17].content_store 	decision_yes[17] 	0
scalar ws11_network.node[17].content_store 	decision_no[17] 	0
scalar ws11_network.node[17].content_store 	decision_ratio[17] 	0
scalar ws11_network.node[18].core_layer 	interests[18] 	0
scalar ws11_network.node[18].core_layer 	data[18] 	0
scalar ws11_network.node[18].content_store 	p_hit[18] 	-nan
scalar ws11_network.node[18].content_store 	hits[18] 	0
scalar ws11_network.node[18].content_store 	misses[18] 	0
scalar ws11_network.node[18].content_store 	decision_yes[18] 	0
scalar ws11_network.node[18].content_store 	decision_no[18] 	0
scalar ws11_network.node[18].content_store 	decision_ratio[18] 	0
scalar ws11_network.node[19].core_layer 	interests[19] 	0
scalar ws11_network.node[19].core_layer 	data[19] 	0
scalar ws11_network.node[19].content_store 	p_hit[19] 	-nan
scalar ws11_network.node[19].content_store 	hits[19] 	0
scalar ws11_network.node[19].content_store 	misses[19] 	0
scalar ws11_network.node[19].content_store 	decision_yes[19] 	0
scalar ws11_network.node[19].content_store 	decision_no[19] 	0
scalar ws11_network.node[19].content_store 	decision_ratio[19] 	0
scalar ws11_network.node[20].core_layer 	interests[20] 	0
scalar ws11_network.node[20].core_layer 	data[20] 	0
scalar ws11_network.node[20].content_store 	p_hit[20] 	-nan
scalar ws11_network.node[20].content_store 	hits[20] 	0
scalar ws11_network.node[20].content_store 	misses[20] 	0
scalar ws11_network.node[20].content_store 	decision_yes[20] 	0
scalar ws11_network.node[20].content_store 	decision_no[20] 	0
scalar ws11_network.node[20].content_store 	decision_ratio[20] 	0
scalar ws11_network.node[21].core_layer 	interests[21] 	0
scalar ws11_network.node[21].core_layer 	data[21] 	0
scalar ws11_network.node[21].content_store 	p_hit[21] 	-nan
scalar ws11_network.node[21].content_store 	hits[21] 	0
scalar ws11_network.node[21].content_store 	misses[21] 	0
scalar ws11_network.node[21].content_store 	decision_yes[21] 	0
scalar ws11_network.node[21].content_store 	decision_no[21] 	0
scalar ws11_network.node[21].content_store 	decision_ratio[21] 	0
scalar ws11_network.client[3] 	hdistance[3] 	1.4151229050279
scalar ws11_network.client[3] 	downloads[3] 	179000
scalar ws11_network.client[3] 	avg_time[3] 	0.004597070955
scalar ws11_network.client[3] 	interests_sent[3] 	179026
scalar ws11_network.client[4] 	hdistance[4] 	1.6043619751964
scalar ws11_network.client[4] 	downloads[4] 	180377
scalar ws11_network.client[4] 	avg_time[4] 	0.005599639067
scalar ws11_network.client[4] 	interests_sent[4] 	180412
scalar ws11_network.client[5] 	hdistance[5] 	1.5584623866085
scalar ws11_network.client[5] 	downloads[5] 	179577
scalar ws11_network.client[5] 	avg_time[5] 	0.005380608731
scalar ws11_network.client[5] 	interests_sent[5] 	179601
