version 2
run General-14-20141030-18:47:19-30816
attr D fix0.01
attr F nrr
attr R lru
attr a 1
attr configname General
attr csize 1e3
attr ctlg 1e5
attr datetime 20141030-18:47:19
attr experiment General
attr inifile omnetpp.ini
attr iterationvars "$rep=12, $lambda=100, $a=1, $ctlg=1e5, $F=nrr, $ttl=10, $D=fix0.01, $R=lru, $csize=1e3, $window=60, $variance=0.05, $mytime=1800, $kappa=1, $priceratiovalue=10, $pricebits=0"
attr iterationvars2 "$rep=12, $lambda=100, $a=1, $ctlg=1e5, $F=nrr, $ttl=10, $D=fix0.01, $R=lru, $csize=1e3, $window=60, $variance=0.05, $mytime=1800, $kappa=1, $priceratiovalue=10, $pricebits=0, $repetition=0"
attr kappa 1
attr lambda 100
attr measurement "$rep=12, $lambda=100, $a=1, $ctlg=1e5, $F=nrr, $ttl=10, $D=fix0.01, $R=lru, $csize=1e3, $window=60, $variance=0.05, $mytime=1800, $kappa=1, $priceratiovalue=10, $pricebits=0"
attr mytime 1800
attr network networks.ws${rep}_network
attr pricebits 0
attr priceratiovalue 10
attr processid 30816
attr rep 12
attr repetition 0
attr replication #0
attr resultdir results
attr runnumber 14
attr seedset 12
attr ttl 10
attr variance 0.05
attr window 60

scalar . 	a 	1
scalar . 	csize 	1e3
scalar . 	ctlg 	1e5
scalar . 	kappa 	1
scalar . 	lambda 	100
scalar . 	mytime 	1800
scalar . 	pricebits 	0
scalar . 	priceratiovalue 	10
scalar . 	rep 	12
scalar . 	ttl 	10
scalar . 	variance 	0.05
scalar . 	window 	60
scalar ws12_network.content_distribution 	repo-0 	15
scalar ws12_network.content_distribution 	repo-1 	11
scalar ws12_network.content_distribution 	repo-2 	12
scalar ws12_network.content_distribution 	client-0 	21
scalar ws12_network.content_distribution 	client-1 	3
scalar ws12_network.content_distribution 	client-2 	10
scalar ws12_network.content_distribution 	repo-0_card 	33377
scalar ws12_network.content_distribution 	repo-0_price 	1
scalar ws12_network.content_distribution 	repo-1_card 	33438
scalar ws12_network.content_distribution 	repo-1_price 	10
scalar ws12_network.content_distribution 	repo-2_card 	33185
scalar ws12_network.content_distribution 	repo-2_price 	0
scalar ws12_network.statistics 	repo_popularity[0] 	0.39206413854294
scalar ws12_network.statistics 	repo_popularity[1] 	0.32380036391025
scalar ws12_network.statistics 	repo_popularity[2] 	0.28413549754682
scalar ws12_network.statistics 	stabilization_time 	36120
scalar ws12_network.statistics 	p_hit 	0.21746857601705
scalar ws12_network.statistics 	interests 	57852.454545455
scalar ws12_network.statistics 	data 	33325.954545455
scalar ws12_network.statistics 	hdistance 	1.8463800163604
scalar ws12_network.statistics 	avg_time 	0.007041742419
scalar ws12_network.statistics 	downloads 	539464
scalar ws12_network.statistics 	total_cost 	929169
scalar ws12_network.statistics 	total_replicas 	100000
scalar ws12_network.statistics 	inner_hit 	0.51307038097074
scalar ws12_network.statistics 	interests_sent 	539577
scalar ws12_network.node[0].core_layer 	interests[0] 	0
scalar ws12_network.node[0].core_layer 	data[0] 	0
scalar ws12_network.node[0].core_layer 	repo_int[0] 	262681
scalar ws12_network.node[0].content_store 	p_hit[0] 	-nan
scalar ws12_network.node[0].content_store 	hits[0] 	0
scalar ws12_network.node[0].content_store 	misses[0] 	0
scalar ws12_network.node[0].content_store 	decision_yes[0] 	0
scalar ws12_network.node[0].content_store 	decision_no[0] 	0
scalar ws12_network.node[0].content_store 	decision_ratio[0] 	0
scalar ws12_network.node[1].core_layer 	interests[1] 	74002
scalar ws12_network.node[1].core_layer 	data[1] 	68002
scalar ws12_network.node[1].content_store 	p_hit[1] 	0.081065376611443
scalar ws12_network.node[1].content_store 	hits[1] 	5999
scalar ws12_network.node[1].content_store 	misses[1] 	68003
scalar ws12_network.node[1].content_store 	decision_yes[1] 	667
scalar ws12_network.node[1].content_store 	decision_no[1] 	67335
scalar ws12_network.node[1].content_store 	decision_ratio[1] 	0.009808535043087
scalar ws12_network.node[2].core_layer 	interests[2] 	52200
scalar ws12_network.node[2].core_layer 	data[2] 	39173
scalar ws12_network.node[2].content_store 	p_hit[2] 	0.24955938697318
scalar ws12_network.node[2].content_store 	hits[2] 	13027
scalar ws12_network.node[2].content_store 	misses[2] 	39173
scalar ws12_network.node[2].content_store 	decision_yes[2] 	367
scalar ws12_network.node[2].content_store 	decision_no[2] 	38806
scalar ws12_network.node[2].content_store 	decision_ratio[2] 	0.0093686978275853
scalar ws12_network.node[3].core_layer 	interests[3] 	180265
scalar ws12_network.node[3].core_layer 	data[3] 	119633
scalar ws12_network.node[3].content_store 	p_hit[3] 	0.33611627326436
scalar ws12_network.node[3].content_store 	hits[3] 	60590
scalar ws12_network.node[3].content_store 	misses[3] 	119675
scalar ws12_network.node[3].content_store 	decision_yes[3] 	1159
scalar ws12_network.node[3].content_store 	decision_no[3] 	118474
scalar ws12_network.node[3].content_store 	decision_ratio[3] 	0.0096879623515251
scalar ws12_network.node[4].core_layer 	interests[4] 	37405
scalar ws12_network.node[4].core_layer 	data[4] 	32321
scalar ws12_network.node[4].content_store 	p_hit[4] 	0.1359176580671
scalar ws12_network.node[4].content_store 	hits[4] 	5084
scalar ws12_network.node[4].content_store 	misses[4] 	32321
scalar ws12_network.node[4].content_store 	decision_yes[4] 	325
scalar ws12_network.node[4].content_store 	decision_no[4] 	31996
scalar ws12_network.node[4].content_store 	decision_ratio[4] 	0.010055381949816
scalar ws12_network.node[5].core_layer 	interests[5] 	41691
scalar ws12_network.node[5].core_layer 	data[5] 	34365
scalar ws12_network.node[5].content_store 	p_hit[5] 	0.17569739272265
scalar ws12_network.node[5].content_store 	hits[5] 	7325
scalar ws12_network.node[5].content_store 	misses[5] 	34366
scalar ws12_network.node[5].content_store 	decision_yes[5] 	365
scalar ws12_network.node[5].content_store 	decision_no[5] 	34000
scalar ws12_network.node[5].content_store 	decision_ratio[5] 	0.01062127164266
scalar ws12_network.node[6].core_layer 	interests[6] 	0
scalar ws12_network.node[6].core_layer 	data[6] 	0
scalar ws12_network.node[6].content_store 	p_hit[6] 	-nan
scalar ws12_network.node[6].content_store 	hits[6] 	0
scalar ws12_network.node[6].content_store 	misses[6] 	0
scalar ws12_network.node[6].content_store 	decision_yes[6] 	0
scalar ws12_network.node[6].content_store 	decision_no[6] 	0
scalar ws12_network.node[6].content_store 	decision_ratio[6] 	0
scalar ws12_network.node[7].core_layer 	interests[7] 	6558
scalar ws12_network.node[7].core_layer 	data[7] 	976
scalar ws12_network.node[7].content_store 	p_hit[7] 	0.85117413845685
scalar ws12_network.node[7].content_store 	hits[7] 	5582
scalar ws12_network.node[7].content_store 	misses[7] 	976
scalar ws12_network.node[7].content_store 	decision_yes[7] 	13
scalar ws12_network.node[7].content_store 	decision_no[7] 	963
scalar ws12_network.node[7].content_store 	decision_ratio[7] 	0.013319672131148
scalar ws12_network.node[8].core_layer 	interests[8] 	0
scalar ws12_network.node[8].core_layer 	data[8] 	0
scalar ws12_network.node[8].content_store 	p_hit[8] 	-nan
scalar ws12_network.node[8].content_store 	hits[8] 	0
scalar ws12_network.node[8].content_store 	misses[8] 	0
scalar ws12_network.node[8].content_store 	decision_yes[8] 	0
scalar ws12_network.node[8].content_store 	decision_no[8] 	0
scalar ws12_network.node[8].content_store 	decision_ratio[8] 	0
scalar ws12_network.node[9].core_layer 	interests[9] 	0
scalar ws12_network.node[9].core_layer 	data[9] 	0
scalar ws12_network.node[9].content_store 	p_hit[9] 	-nan
scalar ws12_network.node[9].content_store 	hits[9] 	0
scalar ws12_network.node[9].content_store 	misses[9] 	0
scalar ws12_network.node[9].content_store 	decision_yes[9] 	0
scalar ws12_network.node[9].content_store 	decision_no[9] 	0
scalar ws12_network.node[9].content_store 	decision_ratio[9] 	0
scalar ws12_network.node[10].core_layer 	interests[10] 	211841
scalar ws12_network.node[10].core_layer 	data[10] 	150293
scalar ws12_network.node[10].content_store 	p_hit[10] 	0.29034039680704
scalar ws12_network.node[10].content_store 	hits[10] 	61506
scalar ws12_network.node[10].content_store 	misses[10] 	150335
scalar ws12_network.node[10].content_store 	decision_yes[10] 	1438
scalar ws12_network.node[10].content_store 	decision_no[10] 	148855
scalar ws12_network.node[10].content_store 	decision_ratio[10] 	0.0095679772178345
scalar ws12_network.node[11].core_layer 	interests[11] 	86522
scalar ws12_network.node[11].core_layer 	repo_load[11] 	83798
scalar ws12_network.node[11].core_layer 	data[11] 	0
scalar ws12_network.node[11].content_store 	p_hit[11] 	0.031483322160838
scalar ws12_network.node[11].content_store 	hits[11] 	2724
scalar ws12_network.node[11].content_store 	misses[11] 	83798
scalar ws12_network.node[11].content_store 	decision_yes[11] 	836
scalar ws12_network.node[11].content_store 	decision_no[11] 	82962
scalar ws12_network.node[11].content_store 	decision_ratio[11] 	0.0099763717511158
scalar ws12_network.node[12].core_layer 	interests[12] 	122463
scalar ws12_network.node[12].core_layer 	repo_load[12] 	87694
scalar ws12_network.node[12].core_layer 	data[12] 	31688
scalar ws12_network.node[12].content_store 	p_hit[12] 	0.025142287874705
scalar ws12_network.node[12].content_store 	hits[12] 	3079
scalar ws12_network.node[12].content_store 	misses[12] 	119384
scalar ws12_network.node[12].content_store 	decision_yes[12] 	1155
scalar ws12_network.node[12].content_store 	decision_no[12] 	118227
scalar ws12_network.node[12].content_store 	decision_ratio[12] 	0.0096748253505554
scalar ws12_network.node[13].core_layer 	interests[13] 	33655
scalar ws12_network.node[13].core_layer 	data[13] 	28881
scalar ws12_network.node[13].content_store 	p_hit[13] 	0.14185113653246
scalar ws12_network.node[13].content_store 	hits[13] 	4774
scalar ws12_network.node[13].content_store 	misses[13] 	28881
scalar ws12_network.node[13].content_store 	decision_yes[13] 	298
scalar ws12_network.node[13].content_store 	decision_no[13] 	28583
scalar ws12_network.node[13].content_store 	decision_ratio[13] 	0.010318202278314
scalar ws12_network.node[14].core_layer 	interests[14] 	36943
scalar ws12_network.node[14].core_layer 	data[14] 	31678
scalar ws12_network.node[14].content_store 	p_hit[14] 	0.14251685028287
scalar ws12_network.node[14].content_store 	hits[14] 	5265
scalar ws12_network.node[14].content_store 	misses[14] 	31678
scalar ws12_network.node[14].content_store 	decision_yes[14] 	307
scalar ws12_network.node[14].content_store 	decision_no[14] 	31371
scalar ws12_network.node[14].content_store 	decision_ratio[14] 	0.0096912683881558
scalar ws12_network.node[15].core_layer 	interests[15] 	103305
scalar ws12_network.node[15].core_layer 	repo_load[15] 	91189
scalar ws12_network.node[15].core_layer 	data[15] 	4058
scalar ws12_network.node[15].content_store 	p_hit[15] 	0.078002032815449
scalar ws12_network.node[15].content_store 	hits[15] 	8058
scalar ws12_network.node[15].content_store 	misses[15] 	95247
scalar ws12_network.node[15].content_store 	decision_yes[15] 	1027
scalar ws12_network.node[15].content_store 	decision_no[15] 	94220
scalar ws12_network.node[15].content_store 	decision_ratio[15] 	0.010782491837013
scalar ws12_network.node[16].core_layer 	interests[16] 	41558
scalar ws12_network.node[16].core_layer 	data[16] 	34852
scalar ws12_network.node[16].content_store 	p_hit[16] 	0.16134077674575
scalar ws12_network.node[16].content_store 	hits[16] 	6705
scalar ws12_network.node[16].content_store 	misses[16] 	34853
scalar ws12_network.node[16].content_store 	decision_yes[16] 	361
scalar ws12_network.node[16].content_store 	decision_no[16] 	34491
scalar ws12_network.node[16].content_store 	decision_ratio[16] 	0.01035808561919
scalar ws12_network.node[17].core_layer 	interests[17] 	0
scalar ws12_network.node[17].core_layer 	data[17] 	0
scalar ws12_network.node[17].content_store 	p_hit[17] 	-nan
scalar ws12_network.node[17].content_store 	hits[17] 	0
scalar ws12_network.node[17].content_store 	misses[17] 	0
scalar ws12_network.node[17].content_store 	decision_yes[17] 	0
scalar ws12_network.node[17].content_store 	decision_no[17] 	0
scalar ws12_network.node[17].content_store 	decision_ratio[17] 	0
scalar ws12_network.node[18].core_layer 	interests[18] 	0
scalar ws12_network.node[18].core_layer 	data[18] 	0
scalar ws12_network.node[18].content_store 	p_hit[18] 	-nan
scalar ws12_network.node[18].content_store 	hits[18] 	0
scalar ws12_network.node[18].content_store 	misses[18] 	0
scalar ws12_network.node[18].content_store 	decision_yes[18] 	0
scalar ws12_network.node[18].content_store 	decision_no[18] 	0
scalar ws12_network.node[18].content_store 	decision_ratio[18] 	0
scalar ws12_network.node[19].core_layer 	interests[19] 	63271
scalar ws12_network.node[19].core_layer 	data[19] 	36902
scalar ws12_network.node[19].content_store 	p_hit[19] 	0.41677861895655
scalar ws12_network.node[19].content_store 	hits[19] 	26370
scalar ws12_network.node[19].content_store 	misses[19] 	36901
scalar ws12_network.node[19].content_store 	decision_yes[19] 	374
scalar ws12_network.node[19].content_store 	decision_no[19] 	36528
scalar ws12_network.node[19].content_store 	decision_ratio[19] 	0.01013495203512
scalar ws12_network.node[20].core_layer 	interests[20] 	0
scalar ws12_network.node[20].core_layer 	data[20] 	0
scalar ws12_network.node[20].content_store 	p_hit[20] 	-nan
scalar ws12_network.node[20].content_store 	hits[20] 	0
scalar ws12_network.node[20].content_store 	misses[20] 	0
scalar ws12_network.node[20].content_store 	decision_yes[20] 	0
scalar ws12_network.node[20].content_store 	decision_no[20] 	0
scalar ws12_network.node[20].content_store 	decision_ratio[20] 	0
scalar ws12_network.node[21].core_layer 	interests[21] 	181075
scalar ws12_network.node[21].core_layer 	data[21] 	120349
scalar ws12_network.node[21].content_store 	p_hit[21] 	0.335198122325
scalar ws12_network.node[21].content_store 	hits[21] 	60696
scalar ws12_network.node[21].content_store 	misses[21] 	120379
scalar ws12_network.node[21].content_store 	decision_yes[21] 	1277
scalar ws12_network.node[21].content_store 	decision_no[21] 	119072
scalar ws12_network.node[21].content_store 	decision_ratio[21] 	0.010610806903256
scalar ws12_network.client[3] 	hdistance[3] 	2.0605802948712
scalar ws12_network.client[3] 	downloads[3] 	179943
scalar ws12_network.client[3] 	avg_time[3] 	0.008213635201
scalar ws12_network.client[3] 	interests_sent[3] 	179985
scalar ws12_network.client[10] 	hdistance[10] 	1.580319060544
scalar ws12_network.client[10] 	downloads[10] 	180530
scalar ws12_network.client[10] 	avg_time[10] 	0.005538758559
scalar ws12_network.client[10] 	interests_sent[10] 	180571
scalar ws12_network.client[21] 	hdistance[21] 	1.8982406936662
scalar ws12_network.client[21] 	downloads[21] 	178991
scalar ws12_network.client[21] 	avg_time[21] 	0.007372833498
scalar ws12_network.client[21] 	interests_sent[21] 	179021
