version 2
run General-1815-20140511-18:35:08-27684
attr D costprobprodcorr0.01
attr F nrr
attr R lru
attr a 0.8
attr configname General
attr csize 1e3
attr ctlg 1e5
attr datetime 20140511-18:35:08
attr experiment General
attr inifile omnetpp.ini
attr iterationvars "$net=one_cache_scenario_3_links, $rep=14, $priceratiovalue=2, $weights=0.333_0.333_0.334, $a=0.8, $ctlg=1e5, $F=nrr, $ttl=1000, $D=costprobprodcorr0.01, $xi=0, $R=lru, $csize=1e3"
attr iterationvars2 "$net=one_cache_scenario_3_links, $rep=14, $priceratiovalue=2, $weights=0.333_0.333_0.334, $a=0.8, $ctlg=1e5, $F=nrr, $ttl=1000, $D=costprobprodcorr0.01, $xi=0, $R=lru, $csize=1e3, $repetition=0"
attr measurement "$net=one_cache_scenario_3_links, $rep=14, $priceratiovalue=2, $weights=0.333_0.333_0.334, $a=0.8, $ctlg=1e5, $F=nrr, $ttl=1000, $D=costprobprodcorr0.01, $xi=0, $R=lru, $csize=1e3"
attr net one_cache_scenario_3_links
attr network networks.${net=one_cache_scenario_3_links}_network
attr priceratiovalue 2
attr processid 27684
attr rep 14
attr repetition 0
attr replication #0
attr resultdir results
attr runnumber 1815
attr seedset 14
attr ttl 1000
attr weights 0.333_0.333_0.334
attr xi 0

scalar . 	a 	0.8
scalar . 	csize 	1e3
scalar . 	ctlg 	1e5
scalar . 	priceratiovalue 	2
scalar . 	rep 	14
scalar . 	ttl 	1000
scalar . 	xi 	0
scalar one_cache_scenario_3_links_network.content_distribution 	repo-0 	4
scalar one_cache_scenario_3_links_network.content_distribution 	repo-1 	5
scalar one_cache_scenario_3_links_network.content_distribution 	repo-2 	6
scalar one_cache_scenario_3_links_network.content_distribution 	client-0 	0
scalar one_cache_scenario_3_links_network.content_distribution 	repo-0_card 	32966
scalar one_cache_scenario_3_links_network.content_distribution 	repo-1_card 	33555
scalar one_cache_scenario_3_links_network.content_distribution 	repo-2_card 	33479
scalar one_cache_scenario_3_links_network.statistics 	p_hit 	0.10150665249129
scalar one_cache_scenario_3_links_network.statistics 	interests 	64229.428571429
scalar one_cache_scenario_3_links_network.statistics 	data 	38473.142857143
scalar one_cache_scenario_3_links_network.statistics 	hdistance 	1.4937380057018
scalar one_cache_scenario_3_links_network.statistics 	avg_time 	0
scalar one_cache_scenario_3_links_network.statistics 	downloads 	180294
scalar one_cache_scenario_3_links_network.statistics 	total_cost 	136427
scalar one_cache_scenario_3_links_network.statistics 	total_replicas 	100000
scalar one_cache_scenario_3_links_network.statistics 	interests_sent 	180294
scalar one_cache_scenario_3_links_network.node[0].core_layer 	interests[0] 	180294
scalar one_cache_scenario_3_links_network.node[0].core_layer 	data[0] 	134656
scalar one_cache_scenario_3_links_network.node[0].core_layer 	repo_int[0] 	134656
scalar one_cache_scenario_3_links_network.node[0].content_store 	p_hit[0] 	0.2531309971491
scalar one_cache_scenario_3_links_network.node[0].content_store 	hits[0] 	45638
scalar one_cache_scenario_3_links_network.node[0].content_store 	misses[0] 	134656
scalar one_cache_scenario_3_links_network.node[0].content_store 	decision_yes[0] 	1965
scalar one_cache_scenario_3_links_network.node[0].content_store 	decision_no[0] 	132691
scalar one_cache_scenario_3_links_network.node[0].content_store 	decision_ratio[0] 	0.014592740019011
scalar one_cache_scenario_3_links_network.node[0].content_store 	correction_factor[0] 	0.014992503748126
scalar one_cache_scenario_3_links_network.node[0].content_store 	xi[0] 	0
scalar one_cache_scenario_3_links_network.node[1].core_layer 	interests[1] 	44121
scalar one_cache_scenario_3_links_network.node[1].core_layer 	data[1] 	44121
scalar one_cache_scenario_3_links_network.node[1].content_store 	p_hit[1] 	0
scalar one_cache_scenario_3_links_network.node[1].content_store 	hits[1] 	0
scalar one_cache_scenario_3_links_network.node[1].content_store 	misses[1] 	44121
scalar one_cache_scenario_3_links_network.node[1].content_store 	decision_yes[1] 	0
scalar one_cache_scenario_3_links_network.node[1].content_store 	decision_no[1] 	44121
scalar one_cache_scenario_3_links_network.node[1].content_store 	decision_ratio[1] 	0
scalar one_cache_scenario_3_links_network.node[2].core_layer 	interests[2] 	44643
scalar one_cache_scenario_3_links_network.node[2].core_layer 	data[2] 	44643
scalar one_cache_scenario_3_links_network.node[2].content_store 	p_hit[2] 	0
scalar one_cache_scenario_3_links_network.node[2].content_store 	hits[2] 	0
scalar one_cache_scenario_3_links_network.node[2].content_store 	misses[2] 	44643
scalar one_cache_scenario_3_links_network.node[2].content_store 	decision_yes[2] 	0
scalar one_cache_scenario_3_links_network.node[2].content_store 	decision_no[2] 	44643
scalar one_cache_scenario_3_links_network.node[2].content_store 	decision_ratio[2] 	0
scalar one_cache_scenario_3_links_network.node[3].core_layer 	interests[3] 	45892
scalar one_cache_scenario_3_links_network.node[3].core_layer 	data[3] 	45892
scalar one_cache_scenario_3_links_network.node[3].content_store 	p_hit[3] 	0
scalar one_cache_scenario_3_links_network.node[3].content_store 	hits[3] 	0
scalar one_cache_scenario_3_links_network.node[3].content_store 	misses[3] 	45892
scalar one_cache_scenario_3_links_network.node[3].content_store 	decision_yes[3] 	0
scalar one_cache_scenario_3_links_network.node[3].content_store 	decision_no[3] 	45892
scalar one_cache_scenario_3_links_network.node[3].content_store 	decision_ratio[3] 	0
scalar one_cache_scenario_3_links_network.node[4].core_layer 	interests[4] 	44121
scalar one_cache_scenario_3_links_network.node[4].core_layer 	repo_load[4] 	44121
scalar one_cache_scenario_3_links_network.node[4].core_layer 	data[4] 	0
scalar one_cache_scenario_3_links_network.node[4].content_store 	p_hit[4] 	0
scalar one_cache_scenario_3_links_network.node[4].content_store 	hits[4] 	0
scalar one_cache_scenario_3_links_network.node[4].content_store 	misses[4] 	44121
scalar one_cache_scenario_3_links_network.node[4].content_store 	decision_yes[4] 	0
scalar one_cache_scenario_3_links_network.node[4].content_store 	decision_no[4] 	44121
scalar one_cache_scenario_3_links_network.node[4].content_store 	decision_ratio[4] 	0
scalar one_cache_scenario_3_links_network.node[5].core_layer 	interests[5] 	44643
scalar one_cache_scenario_3_links_network.node[5].core_layer 	repo_load[5] 	44643
scalar one_cache_scenario_3_links_network.node[5].core_layer 	data[5] 	0
scalar one_cache_scenario_3_links_network.node[5].content_store 	p_hit[5] 	0
scalar one_cache_scenario_3_links_network.node[5].content_store 	hits[5] 	0
scalar one_cache_scenario_3_links_network.node[5].content_store 	misses[5] 	44643
scalar one_cache_scenario_3_links_network.node[5].content_store 	decision_yes[5] 	0
scalar one_cache_scenario_3_links_network.node[5].content_store 	decision_no[5] 	44643
scalar one_cache_scenario_3_links_network.node[5].content_store 	decision_ratio[5] 	0
scalar one_cache_scenario_3_links_network.node[6].core_layer 	interests[6] 	45892
scalar one_cache_scenario_3_links_network.node[6].core_layer 	repo_load[6] 	45892
scalar one_cache_scenario_3_links_network.node[6].core_layer 	data[6] 	0
scalar one_cache_scenario_3_links_network.node[6].content_store 	p_hit[6] 	0
scalar one_cache_scenario_3_links_network.node[6].content_store 	hits[6] 	0
scalar one_cache_scenario_3_links_network.node[6].content_store 	misses[6] 	45892
scalar one_cache_scenario_3_links_network.node[6].content_store 	decision_yes[6] 	0
scalar one_cache_scenario_3_links_network.node[6].content_store 	decision_no[6] 	45892
scalar one_cache_scenario_3_links_network.node[6].content_store 	decision_ratio[6] 	0
scalar one_cache_scenario_3_links_network.client[0] 	hdistance[0] 	1.4937380057018
scalar one_cache_scenario_3_links_network.client[0] 	downloads[0] 	180294
scalar one_cache_scenario_3_links_network.client[0] 	avg_time[0] 	0
scalar one_cache_scenario_3_links_network.client[0] 	interests_sent[0] 	180294
