version 2
run General-11-20141007-11:21:06-15336
attr D costaware0.1
attr F nrr
attr R lru
attr a 1
attr configname General
attr csize 1e3
attr ctlg 1e5
attr datetime 20141007-11:21:06
attr experiment General
attr inifile omnetpp.ini
attr iterationvars "$net=abilene_cost, $rep=2, $priceratiovalue=10, $weights=0.333_0.333_0.334, $lambda=100, $a=1, $ctlg=1e5, $F=nrr, $ttl=10, $D=costaware0.1, $xi=1, $R=lru, $csize=1e3, $pricebits=0, $window=60, $variance=0.05, $mytime=1800"
attr iterationvars2 "$net=abilene_cost, $rep=2, $priceratiovalue=10, $weights=0.333_0.333_0.334, $lambda=100, $a=1, $ctlg=1e5, $F=nrr, $ttl=10, $D=costaware0.1, $xi=1, $R=lru, $csize=1e3, $pricebits=0, $window=60, $variance=0.05, $mytime=1800, $repetition=0"
attr lambda 100
attr measurement "$net=abilene_cost, $rep=2, $priceratiovalue=10, $weights=0.333_0.333_0.334, $lambda=100, $a=1, $ctlg=1e5, $F=nrr, $ttl=10, $D=costaware0.1, $xi=1, $R=lru, $csize=1e3, $pricebits=0, $window=60, $variance=0.05, $mytime=1800"
attr mytime 1800
attr net abilene_cost
attr network networks.${net=abilene_cost,geant_cost}_network
attr pricebits 0
attr priceratiovalue 10
attr processid 15336
attr rep 2
attr repetition 0
attr replication #0
attr resultdir results
attr runnumber 11
attr seedset 2
attr ttl 10
attr variance 0.05
attr weights 0.333_0.333_0.334
attr window 60
attr xi 1

scalar . 	a 	1
scalar . 	csize 	1e3
scalar . 	ctlg 	1e5
scalar . 	lambda 	100
scalar . 	mytime 	1800
scalar . 	pricebits 	0
scalar . 	priceratiovalue 	10
scalar . 	rep 	2
scalar . 	ttl 	10
scalar . 	variance 	0.05
scalar . 	window 	60
scalar . 	xi 	1
scalar abilene_cost_network.content_distribution 	repo-0 	4
scalar abilene_cost_network.content_distribution 	repo-1 	9
scalar abilene_cost_network.content_distribution 	repo-2 	6
scalar abilene_cost_network.content_distribution 	client-0 	3
scalar abilene_cost_network.content_distribution 	client-1 	7
scalar abilene_cost_network.content_distribution 	client-2 	9
scalar abilene_cost_network.content_distribution 	repo-0_card 	33329
scalar abilene_cost_network.content_distribution 	repo-0_price 	1
scalar abilene_cost_network.content_distribution 	repo-1_card 	33052
scalar abilene_cost_network.content_distribution 	repo-1_price 	10
scalar abilene_cost_network.content_distribution 	repo-2_card 	33619
scalar abilene_cost_network.content_distribution 	repo-2_price 	0
scalar abilene_cost_network.statistics 	repo_popularity[0] 	0.33984204835506
scalar abilene_cost_network.statistics 	repo_popularity[1] 	0.39407385110283
scalar abilene_cost_network.statistics 	repo_popularity[2] 	0.26608410054213
scalar abilene_cost_network.statistics 	stabilization_time 	36060
scalar abilene_cost_network.statistics 	p_hit 	0.14476543729168
scalar abilene_cost_network.statistics 	interests 	128380.09090909
scalar abilene_cost_network.statistics 	data 	79297
scalar abilene_cost_network.statistics 	hdistance 	2.2443089169582
scalar abilene_cost_network.statistics 	avg_time 	0.011436885191
scalar abilene_cost_network.statistics 	downloads 	537168
scalar abilene_cost_network.statistics 	total_cost 	1077220
scalar abilene_cost_network.statistics 	total_replicas 	100000
scalar abilene_cost_network.statistics 	inner_hit 	0.38168319780776
scalar abilene_cost_network.node[0].core_layer 	interests[0] 	0
scalar abilene_cost_network.node[0].core_layer 	data[0] 	0
scalar abilene_cost_network.node[0].core_layer 	repo_int[0] 	332140
scalar abilene_cost_network.node[0].content_store 	p_hit[0] 	-nan
scalar abilene_cost_network.node[0].content_store 	hits[0] 	0
scalar abilene_cost_network.node[0].content_store 	misses[0] 	0
scalar abilene_cost_network.node[0].content_store 	decision_yes[0] 	0
scalar abilene_cost_network.node[0].content_store 	decision_no[0] 	0
scalar abilene_cost_network.node[0].content_store 	decision_ratio[0] 	0
scalar abilene_cost_network.node[0].content_store 	correction_factor[0] 	0.027225701061802
scalar abilene_cost_network.node[0].content_store 	kappa[0] 	1
scalar abilene_cost_network.node[1].core_layer 	interests[1] 	0
scalar abilene_cost_network.node[1].core_layer 	data[1] 	0
scalar abilene_cost_network.node[1].content_store 	p_hit[1] 	-nan
scalar abilene_cost_network.node[1].content_store 	hits[1] 	0
scalar abilene_cost_network.node[1].content_store 	misses[1] 	0
scalar abilene_cost_network.node[1].content_store 	decision_yes[1] 	0
scalar abilene_cost_network.node[1].content_store 	decision_no[1] 	0
scalar abilene_cost_network.node[1].content_store 	decision_ratio[1] 	0
scalar abilene_cost_network.node[1].content_store 	correction_factor[1] 	0.027225701061802
scalar abilene_cost_network.node[1].content_store 	kappa[1] 	1
scalar abilene_cost_network.node[2].core_layer 	interests[2] 	117459
scalar abilene_cost_network.node[2].core_layer 	data[2] 	89355
scalar abilene_cost_network.node[2].content_store 	p_hit[2] 	0.23925795383921
scalar abilene_cost_network.node[2].content_store 	hits[2] 	28103
scalar abilene_cost_network.node[2].content_store 	misses[2] 	89356
scalar abilene_cost_network.node[2].content_store 	decision_yes[2] 	8901
scalar abilene_cost_network.node[2].content_store 	decision_no[2] 	80454
scalar abilene_cost_network.node[2].content_store 	decision_ratio[2] 	0.0996138996139
scalar abilene_cost_network.node[2].content_store 	correction_factor[2] 	0.027225701061802
scalar abilene_cost_network.node[2].content_store 	kappa[2] 	1
scalar abilene_cost_network.node[3].core_layer 	interests[3] 	293330
scalar abilene_cost_network.node[3].core_layer 	data[3] 	252024
scalar abilene_cost_network.node[3].content_store 	p_hit[3] 	0.13617427470767
scalar abilene_cost_network.node[3].content_store 	hits[3] 	39944
scalar abilene_cost_network.node[3].content_store 	misses[3] 	253386
scalar abilene_cost_network.node[3].content_store 	decision_yes[3] 	10500
scalar abilene_cost_network.node[3].content_store 	decision_no[3] 	241524
scalar abilene_cost_network.node[3].content_store 	decision_ratio[3] 	0.041662698790591
scalar abilene_cost_network.node[3].content_store 	correction_factor[3] 	0.027225701061802
scalar abilene_cost_network.node[3].content_store 	kappa[3] 	1
scalar abilene_cost_network.node[4].core_layer 	interests[4] 	117634
scalar abilene_cost_network.node[4].core_layer 	repo_load[4] 	90840
scalar abilene_cost_network.node[4].core_layer 	data[4] 	0
scalar abilene_cost_network.node[4].content_store 	p_hit[4] 	0.22777428294541
scalar abilene_cost_network.node[4].content_store 	hits[4] 	26794
scalar abilene_cost_network.node[4].content_store 	misses[4] 	90840
scalar abilene_cost_network.node[4].content_store 	decision_yes[4] 	2557
scalar abilene_cost_network.node[4].content_store 	decision_no[4] 	88283
scalar abilene_cost_network.node[4].content_store 	decision_ratio[4] 	0.028148392778512
scalar abilene_cost_network.node[4].content_store 	correction_factor[4] 	0.027225701061802
scalar abilene_cost_network.node[4].content_store 	kappa[4] 	1
scalar abilene_cost_network.node[5].core_layer 	interests[5] 	0
scalar abilene_cost_network.node[5].core_layer 	data[5] 	0
scalar abilene_cost_network.node[5].content_store 	p_hit[5] 	-nan
scalar abilene_cost_network.node[5].content_store 	hits[5] 	0
scalar abilene_cost_network.node[5].content_store 	misses[5] 	0
scalar abilene_cost_network.node[5].content_store 	decision_yes[5] 	0
scalar abilene_cost_network.node[5].content_store 	decision_no[5] 	0
scalar abilene_cost_network.node[5].content_store 	decision_ratio[5] 	0
scalar abilene_cost_network.node[5].content_store 	correction_factor[5] 	0.027225701061802
scalar abilene_cost_network.node[5].content_store 	kappa[5] 	1
scalar abilene_cost_network.node[6].core_layer 	interests[6] 	142662
scalar abilene_cost_network.node[6].core_layer 	repo_load[6] 	142662
scalar abilene_cost_network.node[6].core_layer 	data[6] 	0
scalar abilene_cost_network.node[6].content_store 	p_hit[6] 	0
scalar abilene_cost_network.node[6].content_store 	hits[6] 	0
scalar abilene_cost_network.node[6].content_store 	misses[6] 	142662
scalar abilene_cost_network.node[6].content_store 	decision_yes[6] 	0
scalar abilene_cost_network.node[6].content_store 	decision_no[6] 	142662
scalar abilene_cost_network.node[6].content_store 	decision_ratio[6] 	0
scalar abilene_cost_network.node[6].content_store 	correction_factor[6] 	0.027225701061802
scalar abilene_cost_network.node[6].content_store 	kappa[6] 	1
scalar abilene_cost_network.node[7].core_layer 	interests[7] 	304104
scalar abilene_cost_network.node[7].core_layer 	data[7] 	249091
scalar abilene_cost_network.node[7].content_store 	p_hit[7] 	0.17848828032515
scalar abilene_cost_network.node[7].content_store 	hits[7] 	54279
scalar abilene_cost_network.node[7].content_store 	misses[7] 	249825
scalar abilene_cost_network.node[7].content_store 	decision_yes[7] 	8848
scalar abilene_cost_network.node[7].content_store 	decision_no[7] 	240243
scalar abilene_cost_network.node[7].content_store 	decision_ratio[7] 	0.035521154919287
scalar abilene_cost_network.node[7].content_store 	correction_factor[7] 	0.027225701061802
scalar abilene_cost_network.node[7].content_store 	kappa[7] 	1
scalar abilene_cost_network.node[8].core_layer 	interests[8] 	190079
scalar abilene_cost_network.node[8].core_layer 	data[8] 	173974
scalar abilene_cost_network.node[8].content_store 	p_hit[8] 	0.084186048958591
scalar abilene_cost_network.node[8].content_store 	hits[8] 	16002
scalar abilene_cost_network.node[8].content_store 	misses[8] 	174077
scalar abilene_cost_network.node[8].content_store 	decision_yes[8] 	16957
scalar abilene_cost_network.node[8].content_store 	decision_no[8] 	157017
scalar abilene_cost_network.node[8].content_store 	decision_ratio[8] 	0.097468587260165
scalar abilene_cost_network.node[8].content_store 	correction_factor[8] 	0.027225701061802
scalar abilene_cost_network.node[8].content_store 	kappa[8] 	1
scalar abilene_cost_network.node[9].core_layer 	interests[9] 	246913
scalar abilene_cost_network.node[9].core_layer 	repo_load[9] 	98638
scalar abilene_cost_network.node[9].core_layer 	data[9] 	107823
scalar abilene_cost_network.node[9].content_store 	p_hit[9] 	0.15921802416236
scalar abilene_cost_network.node[9].content_store 	hits[9] 	39313
scalar abilene_cost_network.node[9].content_store 	misses[9] 	207600
scalar abilene_cost_network.node[9].content_store 	decision_yes[9] 	27547
scalar abilene_cost_network.node[9].content_store 	decision_no[9] 	178914
scalar abilene_cost_network.node[9].content_store 	decision_ratio[9] 	0.13342471459501
scalar abilene_cost_network.node[9].content_store 	correction_factor[9] 	0.027225701061802
scalar abilene_cost_network.node[9].content_store 	kappa[9] 	1
scalar abilene_cost_network.node[10].core_layer 	interests[10] 	0
scalar abilene_cost_network.node[10].core_layer 	data[10] 	0
scalar abilene_cost_network.node[10].content_store 	p_hit[10] 	-nan
scalar abilene_cost_network.node[10].content_store 	hits[10] 	0
scalar abilene_cost_network.node[10].content_store 	misses[10] 	0
scalar abilene_cost_network.node[10].content_store 	decision_yes[10] 	0
scalar abilene_cost_network.node[10].content_store 	decision_no[10] 	0
scalar abilene_cost_network.node[10].content_store 	decision_ratio[10] 	0
scalar abilene_cost_network.node[10].content_store 	correction_factor[10] 	0.027225701061802
scalar abilene_cost_network.node[10].content_store 	kappa[10] 	1
scalar abilene_cost_network.client[3] 	hdistance[3] 	2.193778498895
scalar abilene_cost_network.client[3] 	downloads[3] 	178735
scalar abilene_cost_network.client[3] 	avg_time[3] 	0.009500888078
scalar abilene_cost_network.client[7] 	hdistance[7] 	1.9210846891948
scalar abilene_cost_network.client[7] 	downloads[7] 	179775
scalar abilene_cost_network.client[7] 	avg_time[7] 	0.008369849427
scalar abilene_cost_network.client[9] 	hdistance[9] 	2.6180635627848
scalar abilene_cost_network.client[9] 	downloads[9] 	178658
scalar abilene_cost_network.client[9] 	avg_time[9] 	0.016439918069
