version 2
run General-122-20150321-03:50:50-11457
attr D never
attr F nrr
attr R lru
attr a 1
attr configname General
attr csize 1e3
attr ctlg 1e5
attr datetime 20150321-03:50:50
attr experiment General
attr inifile omnetpp.ini
attr iterationvars "$rep=7, $net=cost_scenario, $lambda=100, $a=1, $ctlg=1e5, $F=nrr, $ttl=10, $D=never, $R=lru, $csize=1e3, $window=60, $variance=0.05, $mytime=1800000, $kappa=1, $priceratiovalue=5, $splits=0_0.5_0.5, $pricebits=0"
attr iterationvars2 "$rep=7, $net=cost_scenario, $lambda=100, $a=1, $ctlg=1e5, $F=nrr, $ttl=10, $D=never, $R=lru, $csize=1e3, $window=60, $variance=0.05, $mytime=1800000, $kappa=1, $priceratiovalue=5, $splits=0_0.5_0.5, $pricebits=0, $repetition=0"
attr kappa 1
attr lambda 100
attr measurement "$rep=7, $net=cost_scenario, $lambda=100, $a=1, $ctlg=1e5, $F=nrr, $ttl=10, $D=never, $R=lru, $csize=1e3, $window=60, $variance=0.05, $mytime=1800000, $kappa=1, $priceratiovalue=5, $splits=0_0.5_0.5, $pricebits=0"
attr mytime 1800000
attr net cost_scenario
attr network networks.${net=cost_scenario}_network
attr pricebits 0
attr priceratiovalue 5
attr processid 11457
attr rep 7
attr repetition 0
attr replication #0
attr resultdir results
attr runnumber 122
attr seedset 7
attr splits 0_0.5_0.5
attr ttl 10
attr variance 0.05
attr window 60

scalar . 	a 	1
scalar . 	csize 	1e3
scalar . 	ctlg 	1e5
scalar . 	kappa 	1
scalar . 	lambda 	100
scalar . 	mytime 	1800000
scalar . 	pricebits 	0
scalar . 	priceratiovalue 	5
scalar . 	rep 	7
scalar . 	ttl 	10
scalar . 	variance 	0.05
scalar . 	window 	60
scalar cost_scenario_network.content_distribution 	repo-0 	1
scalar cost_scenario_network.content_distribution 	repo-1 	2
scalar cost_scenario_network.content_distribution 	repo-2 	3
scalar cost_scenario_network.content_distribution 	client-0 	0
scalar cost_scenario_network.content_distribution 	repo-0_card 	0
scalar cost_scenario_network.content_distribution 	repo-0_price 	5
scalar cost_scenario_network.content_distribution 	repo-1_card 	50028
scalar cost_scenario_network.content_distribution 	repo-1_price 	1
scalar cost_scenario_network.content_distribution 	repo-2_card 	49972
scalar cost_scenario_network.content_distribution 	repo-2_price 	0
scalar cost_scenario_network.statistics 	repo_popularity[0] 	0
scalar cost_scenario_network.statistics 	repo_popularity[1] 	0.45545580182585
scalar cost_scenario_network.statistics 	repo_popularity[2] 	0.54454419817416
scalar cost_scenario_network.statistics 	stabilization_time 	36060
scalar cost_scenario_network.statistics 	p_hit 	0
scalar cost_scenario_network.statistics 	interests 	90000904.5
scalar cost_scenario_network.statistics 	data 	45000452.25
scalar cost_scenario_network.statistics 	hdistance 	2
scalar cost_scenario_network.statistics 	avg_time 	0
scalar cost_scenario_network.statistics 	downloads 	180001809
scalar cost_scenario_network.statistics 	total_cost 	81976748
scalar cost_scenario_network.statistics 	total_replicas 	100000
scalar cost_scenario_network.statistics 	inner_hit 	0
scalar cost_scenario_network.statistics 	interests_sent 	180001809
scalar cost_scenario_network.node[0].core_layer 	interests[0] 	180001809
scalar cost_scenario_network.node[0].core_layer 	data[0] 	180001809
scalar cost_scenario_network.node[0].core_layer 	repo_int[0] 	180001809
scalar cost_scenario_network.node[0].content_store 	p_hit[0] 	0
scalar cost_scenario_network.node[0].content_store 	hits[0] 	0
scalar cost_scenario_network.node[0].content_store 	misses[0] 	180001809
scalar cost_scenario_network.node[0].content_store 	decision_yes[0] 	0
scalar cost_scenario_network.node[0].content_store 	decision_no[0] 	180001809
scalar cost_scenario_network.node[0].content_store 	decision_ratio[0] 	0
scalar cost_scenario_network.node[0].content_store 	cache_value[0] 	1.5629209400139e-316
scalar cost_scenario_network.node[0].content_store 	average_price_of_cache[0] 	-nan
scalar cost_scenario_network.node[1].core_layer 	interests[1] 	0
scalar cost_scenario_network.node[1].core_layer 	data[1] 	0
scalar cost_scenario_network.node[1].content_store 	p_hit[1] 	-nan
scalar cost_scenario_network.node[1].content_store 	hits[1] 	0
scalar cost_scenario_network.node[1].content_store 	misses[1] 	0
scalar cost_scenario_network.node[1].content_store 	decision_yes[1] 	0
scalar cost_scenario_network.node[1].content_store 	decision_no[1] 	0
scalar cost_scenario_network.node[1].content_store 	decision_ratio[1] 	0
scalar cost_scenario_network.node[1].content_store 	cache_value[1] 	1.5632569046531e-316
scalar cost_scenario_network.node[1].content_store 	average_price_of_cache[1] 	-nan
scalar cost_scenario_network.node[2].core_layer 	interests[2] 	81976748
scalar cost_scenario_network.node[2].core_layer 	repo_load[2] 	81976748
scalar cost_scenario_network.node[2].core_layer 	data[2] 	0
scalar cost_scenario_network.node[2].content_store 	p_hit[2] 	0
scalar cost_scenario_network.node[2].content_store 	hits[2] 	0
scalar cost_scenario_network.node[2].content_store 	misses[2] 	81976748
scalar cost_scenario_network.node[2].content_store 	decision_yes[2] 	0
scalar cost_scenario_network.node[2].content_store 	decision_no[2] 	81976748
scalar cost_scenario_network.node[2].content_store 	decision_ratio[2] 	0
scalar cost_scenario_network.node[2].content_store 	cache_value[2] 	1.5634157961648e-316
scalar cost_scenario_network.node[2].content_store 	average_price_of_cache[2] 	-nan
scalar cost_scenario_network.node[3].core_layer 	interests[3] 	98025061
scalar cost_scenario_network.node[3].core_layer 	repo_load[3] 	98025061
scalar cost_scenario_network.node[3].core_layer 	data[3] 	0
scalar cost_scenario_network.node[3].content_store 	p_hit[3] 	0
scalar cost_scenario_network.node[3].content_store 	hits[3] 	0
scalar cost_scenario_network.node[3].content_store 	misses[3] 	98025061
scalar cost_scenario_network.node[3].content_store 	decision_yes[3] 	0
scalar cost_scenario_network.node[3].content_store 	decision_no[3] 	98025061
scalar cost_scenario_network.node[3].content_store 	decision_ratio[3] 	0
scalar cost_scenario_network.node[3].content_store 	cache_value[3] 	1.5635746876765e-316
scalar cost_scenario_network.node[3].content_store 	average_price_of_cache[3] 	-nan
scalar cost_scenario_network.client[0] 	hdistance[0] 	2
scalar cost_scenario_network.client[0] 	downloads[0] 	180001809
scalar cost_scenario_network.client[0] 	avg_time[0] 	0
scalar cost_scenario_network.client[0] 	interests_sent[0] 	180001809
