version 2
run General-10-20140908-16:20:16-9786
attr D lce
attr F spr
attr R lru
attr a 1
attr configname General
attr csize 1e3
attr ctlg 1e5
attr datetime 20140908-16:20:16
attr experiment General
attr inifile omnetpp.ini
attr iterationvars "$net=level3_cost, $rep=2, $priceratiovalue=10, $weights=0.333_0.333_0.334, $lambda=100, $a=1, $ctlg=1e5, $F=spr, $ttl=10, $D=lce, $xi=1, $R=lru, $csize=1e3, $pricebits=0, $window=60, $variance=0.05, $mytime=1800"
attr iterationvars2 "$net=level3_cost, $rep=2, $priceratiovalue=10, $weights=0.333_0.333_0.334, $lambda=100, $a=1, $ctlg=1e5, $F=spr, $ttl=10, $D=lce, $xi=1, $R=lru, $csize=1e3, $pricebits=0, $window=60, $variance=0.05, $mytime=1800, $repetition=0"
attr lambda 100
attr measurement "$net=level3_cost, $rep=2, $priceratiovalue=10, $weights=0.333_0.333_0.334, $lambda=100, $a=1, $ctlg=1e5, $F=spr, $ttl=10, $D=lce, $xi=1, $R=lru, $csize=1e3, $pricebits=0, $window=60, $variance=0.05, $mytime=1800"
attr mytime 1800
attr net level3_cost
attr network networks.${net=level3_cost,tiger_cost,dtelecom_cost}_network
attr pricebits 0
attr priceratiovalue 10
attr processid 9786
attr rep 2
attr repetition 0
attr replication #0
attr resultdir results
attr runnumber 10
attr seedset 2
attr ttl 10
attr variance 0.05
attr weights 0.333_0.333_0.334
attr window 60
attr xi 1

scalar . 	a 	1
scalar . 	csize 	1e3
scalar . 	ctlg 	1e5
scalar . 	lambda 	100
scalar . 	mytime 	1800
scalar . 	pricebits 	0
scalar . 	priceratiovalue 	10
scalar . 	rep 	2
scalar . 	ttl 	10
scalar . 	variance 	0.05
scalar . 	window 	60
scalar . 	xi 	1
scalar level3_cost_network.content_distribution 	repo-0 	4
scalar level3_cost_network.content_distribution 	repo-1 	25
scalar level3_cost_network.content_distribution 	repo-2 	3
scalar level3_cost_network.content_distribution 	client-0 	23
scalar level3_cost_network.content_distribution 	client-1 	39
scalar level3_cost_network.content_distribution 	client-2 	28
scalar level3_cost_network.content_distribution 	repo-0_card 	33330
scalar level3_cost_network.content_distribution 	repo-0_price 	1
scalar level3_cost_network.content_distribution 	repo-1_card 	33051
scalar level3_cost_network.content_distribution 	repo-1_price 	10
scalar level3_cost_network.content_distribution 	repo-2_card 	33619
scalar level3_cost_network.content_distribution 	repo-2_price 	0
scalar level3_cost_network.statistics 	repo_popularity[0] 	0.39725174343247
scalar level3_cost_network.statistics 	repo_popularity[1] 	0.34020553696277
scalar level3_cost_network.statistics 	repo_popularity[2] 	0.26254271960477
scalar level3_cost_network.statistics 	stabilization_time 	36060
scalar level3_cost_network.statistics 	p_hit 	0.084585498456952
scalar level3_cost_network.statistics 	interests 	30740.956521739
scalar level3_cost_network.statistics 	data 	18995.239130435
scalar level3_cost_network.statistics 	hdistance 	2.419188016457
scalar level3_cost_network.statistics 	avg_time 	0.040854640128
scalar level3_cost_network.statistics 	downloads 	534612
scalar level3_cost_network.statistics 	total_cost 	1569163
scalar level3_cost_network.statistics 	total_replicas 	100000
scalar level3_cost_network.statistics 	inner_hit 	0.23246952930349
scalar level3_cost_network.statistics 	interests_sent 	540315
scalar level3_cost_network.node[0].core_layer 	interests[0] 	0
scalar level3_cost_network.node[0].core_layer 	data[0] 	0
scalar level3_cost_network.node[0].core_layer 	repo_int[0] 	410331
scalar level3_cost_network.node[0].content_store 	p_hit[0] 	-nan
scalar level3_cost_network.node[0].content_store 	hits[0] 	0
scalar level3_cost_network.node[0].content_store 	misses[0] 	0
scalar level3_cost_network.node[0].content_store 	decision_yes[0] 	0
scalar level3_cost_network.node[0].content_store 	decision_no[0] 	0
scalar level3_cost_network.node[0].content_store 	decision_ratio[0] 	0
scalar level3_cost_network.node[1].core_layer 	interests[1] 	0
scalar level3_cost_network.node[1].core_layer 	data[1] 	0
scalar level3_cost_network.node[1].content_store 	p_hit[1] 	-nan
scalar level3_cost_network.node[1].content_store 	hits[1] 	0
scalar level3_cost_network.node[1].content_store 	misses[1] 	0
scalar level3_cost_network.node[1].content_store 	decision_yes[1] 	0
scalar level3_cost_network.node[1].content_store 	decision_no[1] 	0
scalar level3_cost_network.node[1].content_store 	decision_ratio[1] 	0
scalar level3_cost_network.node[2].core_layer 	interests[2] 	0
scalar level3_cost_network.node[2].core_layer 	data[2] 	0
scalar level3_cost_network.node[2].content_store 	p_hit[2] 	-nan
scalar level3_cost_network.node[2].content_store 	hits[2] 	0
scalar level3_cost_network.node[2].content_store 	misses[2] 	0
scalar level3_cost_network.node[2].content_store 	decision_yes[2] 	0
scalar level3_cost_network.node[2].content_store 	decision_no[2] 	0
scalar level3_cost_network.node[2].content_store 	decision_ratio[2] 	0
scalar level3_cost_network.node[3].core_layer 	interests[3] 	133437
scalar level3_cost_network.node[3].core_layer 	repo_load[3] 	131300
scalar level3_cost_network.node[3].core_layer 	data[3] 	0
scalar level3_cost_network.node[3].content_store 	p_hit[3] 	0.016015048299947
scalar level3_cost_network.node[3].content_store 	hits[3] 	2137
scalar level3_cost_network.node[3].content_store 	misses[3] 	131300
scalar level3_cost_network.node[3].content_store 	decision_yes[3] 	131300
scalar level3_cost_network.node[3].content_store 	decision_no[3] 	0
scalar level3_cost_network.node[3].content_store 	decision_ratio[3] 	1
scalar level3_cost_network.node[4].core_layer 	interests[4] 	135716
scalar level3_cost_network.node[4].core_layer 	repo_load[4] 	135683
scalar level3_cost_network.node[4].core_layer 	data[4] 	0
scalar level3_cost_network.node[4].content_store 	p_hit[4] 	0.0002431548233075
scalar level3_cost_network.node[4].content_store 	hits[4] 	33
scalar level3_cost_network.node[4].content_store 	misses[4] 	135683
scalar level3_cost_network.node[4].content_store 	decision_yes[4] 	135683
scalar level3_cost_network.node[4].content_store 	decision_no[4] 	0
scalar level3_cost_network.node[4].content_store 	decision_ratio[4] 	1
scalar level3_cost_network.node[5].core_layer 	interests[5] 	0
scalar level3_cost_network.node[5].core_layer 	data[5] 	0
scalar level3_cost_network.node[5].content_store 	p_hit[5] 	-nan
scalar level3_cost_network.node[5].content_store 	hits[5] 	0
scalar level3_cost_network.node[5].content_store 	misses[5] 	0
scalar level3_cost_network.node[5].content_store 	decision_yes[5] 	0
scalar level3_cost_network.node[5].content_store 	decision_no[5] 	0
scalar level3_cost_network.node[5].content_store 	decision_ratio[5] 	0
scalar level3_cost_network.node[6].core_layer 	interests[6] 	0
scalar level3_cost_network.node[6].core_layer 	data[6] 	0
scalar level3_cost_network.node[6].content_store 	p_hit[6] 	-nan
scalar level3_cost_network.node[6].content_store 	hits[6] 	0
scalar level3_cost_network.node[6].content_store 	misses[6] 	0
scalar level3_cost_network.node[6].content_store 	decision_yes[6] 	0
scalar level3_cost_network.node[6].content_store 	decision_no[6] 	0
scalar level3_cost_network.node[6].content_store 	decision_ratio[6] 	0
scalar level3_cost_network.node[7].core_layer 	interests[7] 	297244
scalar level3_cost_network.node[7].core_layer 	data[7] 	283501
scalar level3_cost_network.node[7].content_store 	p_hit[7] 	0.040855324245401
scalar level3_cost_network.node[7].content_store 	hits[7] 	12144
scalar level3_cost_network.node[7].content_store 	misses[7] 	285100
scalar level3_cost_network.node[7].content_store 	decision_yes[7] 	283501
scalar level3_cost_network.node[7].content_store 	decision_no[7] 	0
scalar level3_cost_network.node[7].content_store 	decision_ratio[7] 	1
scalar level3_cost_network.node[8].core_layer 	interests[8] 	0
scalar level3_cost_network.node[8].core_layer 	data[8] 	0
scalar level3_cost_network.node[8].content_store 	p_hit[8] 	-nan
scalar level3_cost_network.node[8].content_store 	hits[8] 	0
scalar level3_cost_network.node[8].content_store 	misses[8] 	0
scalar level3_cost_network.node[8].content_store 	decision_yes[8] 	0
scalar level3_cost_network.node[8].content_store 	decision_no[8] 	0
scalar level3_cost_network.node[8].content_store 	decision_ratio[8] 	0
scalar level3_cost_network.node[9].core_layer 	interests[9] 	0
scalar level3_cost_network.node[9].core_layer 	data[9] 	0
scalar level3_cost_network.node[9].content_store 	p_hit[9] 	-nan
scalar level3_cost_network.node[9].content_store 	hits[9] 	0
scalar level3_cost_network.node[9].content_store 	misses[9] 	0
scalar level3_cost_network.node[9].content_store 	decision_yes[9] 	0
scalar level3_cost_network.node[9].content_store 	decision_no[9] 	0
scalar level3_cost_network.node[9].content_store 	decision_ratio[9] 	0
scalar level3_cost_network.node[10].core_layer 	interests[10] 	0
scalar level3_cost_network.node[10].core_layer 	data[10] 	0
scalar level3_cost_network.node[10].content_store 	p_hit[10] 	-nan
scalar level3_cost_network.node[10].content_store 	hits[10] 	0
scalar level3_cost_network.node[10].content_store 	misses[10] 	0
scalar level3_cost_network.node[10].content_store 	decision_yes[10] 	0
scalar level3_cost_network.node[10].content_store 	decision_no[10] 	0
scalar level3_cost_network.node[10].content_store 	decision_ratio[10] 	0
scalar level3_cost_network.node[11].core_layer 	interests[11] 	157309
scalar level3_cost_network.node[11].core_layer 	data[11] 	135717
scalar level3_cost_network.node[11].content_store 	p_hit[11] 	0.11781271255936
scalar level3_cost_network.node[11].content_store 	hits[11] 	18533
scalar level3_cost_network.node[11].content_store 	misses[11] 	138776
scalar level3_cost_network.node[11].content_store 	decision_yes[11] 	135717
scalar level3_cost_network.node[11].content_store 	decision_no[11] 	0
scalar level3_cost_network.node[11].content_store 	decision_ratio[11] 	1
scalar level3_cost_network.node[12].core_layer 	interests[12] 	0
scalar level3_cost_network.node[12].core_layer 	data[12] 	0
scalar level3_cost_network.node[12].content_store 	p_hit[12] 	-nan
scalar level3_cost_network.node[12].content_store 	hits[12] 	0
scalar level3_cost_network.node[12].content_store 	misses[12] 	0
scalar level3_cost_network.node[12].content_store 	decision_yes[12] 	0
scalar level3_cost_network.node[12].content_store 	decision_no[12] 	0
scalar level3_cost_network.node[12].content_store 	decision_ratio[12] 	0
scalar level3_cost_network.node[13].core_layer 	interests[13] 	0
scalar level3_cost_network.node[13].core_layer 	data[13] 	0
scalar level3_cost_network.node[13].content_store 	p_hit[13] 	-nan
scalar level3_cost_network.node[13].content_store 	hits[13] 	0
scalar level3_cost_network.node[13].content_store 	misses[13] 	0
scalar level3_cost_network.node[13].content_store 	decision_yes[13] 	0
scalar level3_cost_network.node[13].content_store 	decision_no[13] 	0
scalar level3_cost_network.node[13].content_store 	decision_ratio[13] 	0
scalar level3_cost_network.node[14].core_layer 	interests[14] 	0
scalar level3_cost_network.node[14].core_layer 	data[14] 	0
scalar level3_cost_network.node[14].content_store 	p_hit[14] 	-nan
scalar level3_cost_network.node[14].content_store 	hits[14] 	0
scalar level3_cost_network.node[14].content_store 	misses[14] 	0
scalar level3_cost_network.node[14].content_store 	decision_yes[14] 	0
scalar level3_cost_network.node[14].content_store 	decision_no[14] 	0
scalar level3_cost_network.node[14].content_store 	decision_ratio[14] 	0
scalar level3_cost_network.node[15].core_layer 	interests[15] 	0
scalar level3_cost_network.node[15].core_layer 	data[15] 	0
scalar level3_cost_network.node[15].content_store 	p_hit[15] 	-nan
scalar level3_cost_network.node[15].content_store 	hits[15] 	0
scalar level3_cost_network.node[15].content_store 	misses[15] 	0
scalar level3_cost_network.node[15].content_store 	decision_yes[15] 	0
scalar level3_cost_network.node[15].content_store 	decision_no[15] 	0
scalar level3_cost_network.node[15].content_store 	decision_ratio[15] 	0
scalar level3_cost_network.node[16].core_layer 	interests[16] 	0
scalar level3_cost_network.node[16].core_layer 	data[16] 	0
scalar level3_cost_network.node[16].content_store 	p_hit[16] 	-nan
scalar level3_cost_network.node[16].content_store 	hits[16] 	0
scalar level3_cost_network.node[16].content_store 	misses[16] 	0
scalar level3_cost_network.node[16].content_store 	decision_yes[16] 	0
scalar level3_cost_network.node[16].content_store 	decision_no[16] 	0
scalar level3_cost_network.node[16].content_store 	decision_ratio[16] 	0
scalar level3_cost_network.node[17].core_layer 	interests[17] 	0
scalar level3_cost_network.node[17].core_layer 	data[17] 	0
scalar level3_cost_network.node[17].content_store 	p_hit[17] 	-nan
scalar level3_cost_network.node[17].content_store 	hits[17] 	0
scalar level3_cost_network.node[17].content_store 	misses[17] 	0
scalar level3_cost_network.node[17].content_store 	decision_yes[17] 	0
scalar level3_cost_network.node[17].content_store 	decision_no[17] 	0
scalar level3_cost_network.node[17].content_store 	decision_ratio[17] 	0
scalar level3_cost_network.node[18].core_layer 	interests[18] 	0
scalar level3_cost_network.node[18].core_layer 	data[18] 	0
scalar level3_cost_network.node[18].content_store 	p_hit[18] 	-nan
scalar level3_cost_network.node[18].content_store 	hits[18] 	0
scalar level3_cost_network.node[18].content_store 	misses[18] 	0
scalar level3_cost_network.node[18].content_store 	decision_yes[18] 	0
scalar level3_cost_network.node[18].content_store 	decision_no[18] 	0
scalar level3_cost_network.node[18].content_store 	decision_ratio[18] 	0
scalar level3_cost_network.node[19].core_layer 	interests[19] 	0
scalar level3_cost_network.node[19].core_layer 	data[19] 	0
scalar level3_cost_network.node[19].content_store 	p_hit[19] 	-nan
scalar level3_cost_network.node[19].content_store 	hits[19] 	0
scalar level3_cost_network.node[19].content_store 	misses[19] 	0
scalar level3_cost_network.node[19].content_store 	decision_yes[19] 	0
scalar level3_cost_network.node[19].content_store 	decision_no[19] 	0
scalar level3_cost_network.node[19].content_store 	decision_ratio[19] 	0
scalar level3_cost_network.node[20].core_layer 	interests[20] 	0
scalar level3_cost_network.node[20].core_layer 	data[20] 	0
scalar level3_cost_network.node[20].content_store 	p_hit[20] 	-nan
scalar level3_cost_network.node[20].content_store 	hits[20] 	0
scalar level3_cost_network.node[20].content_store 	misses[20] 	0
scalar level3_cost_network.node[20].content_store 	decision_yes[20] 	0
scalar level3_cost_network.node[20].content_store 	decision_no[20] 	0
scalar level3_cost_network.node[20].content_store 	decision_ratio[20] 	0
scalar level3_cost_network.node[21].core_layer 	interests[21] 	0
scalar level3_cost_network.node[21].core_layer 	data[21] 	0
scalar level3_cost_network.node[21].content_store 	p_hit[21] 	-nan
scalar level3_cost_network.node[21].content_store 	hits[21] 	0
scalar level3_cost_network.node[21].content_store 	misses[21] 	0
scalar level3_cost_network.node[21].content_store 	decision_yes[21] 	0
scalar level3_cost_network.node[21].content_store 	decision_no[21] 	0
scalar level3_cost_network.node[21].content_store 	decision_ratio[21] 	0
scalar level3_cost_network.node[22].core_layer 	interests[22] 	0
scalar level3_cost_network.node[22].core_layer 	data[22] 	0
scalar level3_cost_network.node[22].content_store 	p_hit[22] 	-nan
scalar level3_cost_network.node[22].content_store 	hits[22] 	0
scalar level3_cost_network.node[22].content_store 	misses[22] 	0
scalar level3_cost_network.node[22].content_store 	decision_yes[22] 	0
scalar level3_cost_network.node[22].content_store 	decision_no[22] 	0
scalar level3_cost_network.node[22].content_store 	decision_ratio[22] 	0
scalar level3_cost_network.node[23].core_layer 	interests[23] 	180007
scalar level3_cost_network.node[23].core_layer 	data[23] 	151557
scalar level3_cost_network.node[23].content_store 	p_hit[23] 	0.14858311065681
scalar level3_cost_network.node[23].content_store 	hits[23] 	26746
scalar level3_cost_network.node[23].content_store 	misses[23] 	153261
scalar level3_cost_network.node[23].content_store 	decision_yes[23] 	151557
scalar level3_cost_network.node[23].content_store 	decision_no[23] 	0
scalar level3_cost_network.node[23].content_store 	decision_ratio[23] 	1
scalar level3_cost_network.node[24].core_layer 	interests[24] 	0
scalar level3_cost_network.node[24].core_layer 	data[24] 	0
scalar level3_cost_network.node[24].content_store 	p_hit[24] 	-nan
scalar level3_cost_network.node[24].content_store 	hits[24] 	0
scalar level3_cost_network.node[24].content_store 	misses[24] 	0
scalar level3_cost_network.node[24].content_store 	decision_yes[24] 	0
scalar level3_cost_network.node[24].content_store 	decision_no[24] 	0
scalar level3_cost_network.node[24].content_store 	decision_ratio[24] 	0
scalar level3_cost_network.node[25].core_layer 	interests[25] 	150063
scalar level3_cost_network.node[25].core_layer 	repo_load[25] 	143348
scalar level3_cost_network.node[25].core_layer 	data[25] 	0
scalar level3_cost_network.node[25].content_store 	p_hit[25] 	0.044747872560191
scalar level3_cost_network.node[25].content_store 	hits[25] 	6715
scalar level3_cost_network.node[25].content_store 	misses[25] 	143348
scalar level3_cost_network.node[25].content_store 	decision_yes[25] 	143348
scalar level3_cost_network.node[25].content_store 	decision_no[25] 	0
scalar level3_cost_network.node[25].content_store 	decision_ratio[25] 	1
scalar level3_cost_network.node[26].core_layer 	interests[26] 	0
scalar level3_cost_network.node[26].core_layer 	data[26] 	0
scalar level3_cost_network.node[26].content_store 	p_hit[26] 	-nan
scalar level3_cost_network.node[26].content_store 	hits[26] 	0
scalar level3_cost_network.node[26].content_store 	misses[26] 	0
scalar level3_cost_network.node[26].content_store 	decision_yes[26] 	0
scalar level3_cost_network.node[26].content_store 	decision_no[26] 	0
scalar level3_cost_network.node[26].content_store 	decision_ratio[26] 	0
scalar level3_cost_network.node[27].core_layer 	interests[27] 	0
scalar level3_cost_network.node[27].core_layer 	data[27] 	0
scalar level3_cost_network.node[27].content_store 	p_hit[27] 	-nan
scalar level3_cost_network.node[27].content_store 	hits[27] 	0
scalar level3_cost_network.node[27].content_store 	misses[27] 	0
scalar level3_cost_network.node[27].content_store 	decision_yes[27] 	0
scalar level3_cost_network.node[27].content_store 	decision_no[27] 	0
scalar level3_cost_network.node[27].content_store 	decision_ratio[27] 	0
scalar level3_cost_network.node[28].core_layer 	interests[28] 	180217
scalar level3_cost_network.node[28].core_layer 	data[28] 	151162
scalar level3_cost_network.node[28].content_store 	p_hit[28] 	0.14792167220628
scalar level3_cost_network.node[28].content_store 	hits[28] 	26658
scalar level3_cost_network.node[28].content_store 	misses[28] 	153559
scalar level3_cost_network.node[28].content_store 	decision_yes[28] 	151162
scalar level3_cost_network.node[28].content_store 	decision_no[28] 	0
scalar level3_cost_network.node[28].content_store 	decision_ratio[28] 	1
scalar level3_cost_network.node[29].core_layer 	interests[29] 	0
scalar level3_cost_network.node[29].core_layer 	data[29] 	0
scalar level3_cost_network.node[29].content_store 	p_hit[29] 	-nan
scalar level3_cost_network.node[29].content_store 	hits[29] 	0
scalar level3_cost_network.node[29].content_store 	misses[29] 	0
scalar level3_cost_network.node[29].content_store 	decision_yes[29] 	0
scalar level3_cost_network.node[29].content_store 	decision_no[29] 	0
scalar level3_cost_network.node[29].content_store 	decision_ratio[29] 	0
scalar level3_cost_network.node[30].core_layer 	interests[30] 	0
scalar level3_cost_network.node[30].core_layer 	data[30] 	0
scalar level3_cost_network.node[30].content_store 	p_hit[30] 	-nan
scalar level3_cost_network.node[30].content_store 	hits[30] 	0
scalar level3_cost_network.node[30].content_store 	misses[30] 	0
scalar level3_cost_network.node[30].content_store 	decision_yes[30] 	0
scalar level3_cost_network.node[30].content_store 	decision_no[30] 	0
scalar level3_cost_network.node[30].content_store 	decision_ratio[30] 	0
scalar level3_cost_network.node[31].core_layer 	interests[31] 	0
scalar level3_cost_network.node[31].core_layer 	data[31] 	0
scalar level3_cost_network.node[31].content_store 	p_hit[31] 	-nan
scalar level3_cost_network.node[31].content_store 	hits[31] 	0
scalar level3_cost_network.node[31].content_store 	misses[31] 	0
scalar level3_cost_network.node[31].content_store 	decision_yes[31] 	0
scalar level3_cost_network.node[31].content_store 	decision_no[31] 	0
scalar level3_cost_network.node[31].content_store 	decision_ratio[31] 	0
scalar level3_cost_network.node[32].core_layer 	interests[32] 	0
scalar level3_cost_network.node[32].core_layer 	data[32] 	0
scalar level3_cost_network.node[32].content_store 	p_hit[32] 	-nan
scalar level3_cost_network.node[32].content_store 	hits[32] 	0
scalar level3_cost_network.node[32].content_store 	misses[32] 	0
scalar level3_cost_network.node[32].content_store 	decision_yes[32] 	0
scalar level3_cost_network.node[32].content_store 	decision_no[32] 	0
scalar level3_cost_network.node[32].content_store 	decision_ratio[32] 	0
scalar level3_cost_network.node[33].core_layer 	interests[33] 	0
scalar level3_cost_network.node[33].core_layer 	data[33] 	0
scalar level3_cost_network.node[33].content_store 	p_hit[33] 	-nan
scalar level3_cost_network.node[33].content_store 	hits[33] 	0
scalar level3_cost_network.node[33].content_store 	misses[33] 	0
scalar level3_cost_network.node[33].content_store 	decision_yes[33] 	0
scalar level3_cost_network.node[33].content_store 	decision_no[33] 	0
scalar level3_cost_network.node[33].content_store 	decision_ratio[33] 	0
scalar level3_cost_network.node[34].core_layer 	interests[34] 	0
scalar level3_cost_network.node[34].core_layer 	data[34] 	0
scalar level3_cost_network.node[34].content_store 	p_hit[34] 	-nan
scalar level3_cost_network.node[34].content_store 	hits[34] 	0
scalar level3_cost_network.node[34].content_store 	misses[34] 	0
scalar level3_cost_network.node[34].content_store 	decision_yes[34] 	0
scalar level3_cost_network.node[34].content_store 	decision_no[34] 	0
scalar level3_cost_network.node[34].content_store 	decision_ratio[34] 	0
scalar level3_cost_network.node[35].core_layer 	interests[35] 	0
scalar level3_cost_network.node[35].core_layer 	data[35] 	0
scalar level3_cost_network.node[35].content_store 	p_hit[35] 	-nan
scalar level3_cost_network.node[35].content_store 	hits[35] 	0
scalar level3_cost_network.node[35].content_store 	misses[35] 	0
scalar level3_cost_network.node[35].content_store 	decision_yes[35] 	0
scalar level3_cost_network.node[35].content_store 	decision_no[35] 	0
scalar level3_cost_network.node[35].content_store 	decision_ratio[35] 	0
scalar level3_cost_network.node[36].core_layer 	interests[36] 	0
scalar level3_cost_network.node[36].core_layer 	data[36] 	0
scalar level3_cost_network.node[36].content_store 	p_hit[36] 	-nan
scalar level3_cost_network.node[36].content_store 	hits[36] 	0
scalar level3_cost_network.node[36].content_store 	misses[36] 	0
scalar level3_cost_network.node[36].content_store 	decision_yes[36] 	0
scalar level3_cost_network.node[36].content_store 	decision_no[36] 	0
scalar level3_cost_network.node[36].content_store 	decision_ratio[36] 	0
scalar level3_cost_network.node[37].core_layer 	interests[37] 	0
scalar level3_cost_network.node[37].core_layer 	data[37] 	0
scalar level3_cost_network.node[37].content_store 	p_hit[37] 	-nan
scalar level3_cost_network.node[37].content_store 	hits[37] 	0
scalar level3_cost_network.node[37].content_store 	misses[37] 	0
scalar level3_cost_network.node[37].content_store 	decision_yes[37] 	0
scalar level3_cost_network.node[37].content_store 	decision_no[37] 	0
scalar level3_cost_network.node[37].content_store 	decision_ratio[37] 	0
scalar level3_cost_network.node[38].core_layer 	interests[38] 	0
scalar level3_cost_network.node[38].core_layer 	data[38] 	0
scalar level3_cost_network.node[38].content_store 	p_hit[38] 	-nan
scalar level3_cost_network.node[38].content_store 	hits[38] 	0
scalar level3_cost_network.node[38].content_store 	misses[38] 	0
scalar level3_cost_network.node[38].content_store 	decision_yes[38] 	0
scalar level3_cost_network.node[38].content_store 	decision_no[38] 	0
scalar level3_cost_network.node[38].content_store 	decision_ratio[38] 	0
scalar level3_cost_network.node[39].core_layer 	interests[39] 	180091
scalar level3_cost_network.node[39].core_layer 	data[39] 	151844
scalar level3_cost_network.node[39].content_store 	p_hit[39] 	0.14795297932712
scalar level3_cost_network.node[39].content_store 	hits[39] 	26645
scalar level3_cost_network.node[39].content_store 	misses[39] 	153446
scalar level3_cost_network.node[39].content_store 	decision_yes[39] 	151844
scalar level3_cost_network.node[39].content_store 	decision_no[39] 	0
scalar level3_cost_network.node[39].content_store 	decision_ratio[39] 	1
scalar level3_cost_network.node[40].core_layer 	interests[40] 	0
scalar level3_cost_network.node[40].core_layer 	data[40] 	0
scalar level3_cost_network.node[40].content_store 	p_hit[40] 	-nan
scalar level3_cost_network.node[40].content_store 	hits[40] 	0
scalar level3_cost_network.node[40].content_store 	misses[40] 	0
scalar level3_cost_network.node[40].content_store 	decision_yes[40] 	0
scalar level3_cost_network.node[40].content_store 	decision_no[40] 	0
scalar level3_cost_network.node[40].content_store 	decision_ratio[40] 	0
scalar level3_cost_network.node[41].core_layer 	interests[41] 	0
scalar level3_cost_network.node[41].core_layer 	data[41] 	0
scalar level3_cost_network.node[41].content_store 	p_hit[41] 	-nan
scalar level3_cost_network.node[41].content_store 	hits[41] 	0
scalar level3_cost_network.node[41].content_store 	misses[41] 	0
scalar level3_cost_network.node[41].content_store 	decision_yes[41] 	0
scalar level3_cost_network.node[41].content_store 	decision_no[41] 	0
scalar level3_cost_network.node[41].content_store 	decision_ratio[41] 	0
scalar level3_cost_network.node[42].core_layer 	interests[42] 	0
scalar level3_cost_network.node[42].core_layer 	data[42] 	0
scalar level3_cost_network.node[42].content_store 	p_hit[42] 	-nan
scalar level3_cost_network.node[42].content_store 	hits[42] 	0
scalar level3_cost_network.node[42].content_store 	misses[42] 	0
scalar level3_cost_network.node[42].content_store 	decision_yes[42] 	0
scalar level3_cost_network.node[42].content_store 	decision_no[42] 	0
scalar level3_cost_network.node[42].content_store 	decision_ratio[42] 	0
scalar level3_cost_network.node[43].core_layer 	interests[43] 	0
scalar level3_cost_network.node[43].core_layer 	data[43] 	0
scalar level3_cost_network.node[43].content_store 	p_hit[43] 	-nan
scalar level3_cost_network.node[43].content_store 	hits[43] 	0
scalar level3_cost_network.node[43].content_store 	misses[43] 	0
scalar level3_cost_network.node[43].content_store 	decision_yes[43] 	0
scalar level3_cost_network.node[43].content_store 	decision_no[43] 	0
scalar level3_cost_network.node[43].content_store 	decision_ratio[43] 	0
scalar level3_cost_network.node[44].core_layer 	interests[44] 	0
scalar level3_cost_network.node[44].core_layer 	data[44] 	0
scalar level3_cost_network.node[44].content_store 	p_hit[44] 	-nan
scalar level3_cost_network.node[44].content_store 	hits[44] 	0
scalar level3_cost_network.node[44].content_store 	misses[44] 	0
scalar level3_cost_network.node[44].content_store 	decision_yes[44] 	0
scalar level3_cost_network.node[44].content_store 	decision_no[44] 	0
scalar level3_cost_network.node[44].content_store 	decision_ratio[44] 	0
scalar level3_cost_network.node[45].core_layer 	interests[45] 	0
scalar level3_cost_network.node[45].core_layer 	data[45] 	0
scalar level3_cost_network.node[45].content_store 	p_hit[45] 	-nan
scalar level3_cost_network.node[45].content_store 	hits[45] 	0
scalar level3_cost_network.node[45].content_store 	misses[45] 	0
scalar level3_cost_network.node[45].content_store 	decision_yes[45] 	0
scalar level3_cost_network.node[45].content_store 	decision_no[45] 	0
scalar level3_cost_network.node[45].content_store 	decision_ratio[45] 	0
scalar level3_cost_network.client[23] 	hdistance[23] 	2.4183160126302
scalar level3_cost_network.client[23] 	downloads[23] 	178303
scalar level3_cost_network.client[23] 	avg_time[23] 	0.03683885115
scalar level3_cost_network.client[23] 	interests_sent[23] 	180007
scalar level3_cost_network.client[28] 	hdistance[28] 	2.4208413001912
scalar level3_cost_network.client[28] 	downloads[28] 	177820
scalar level3_cost_network.client[28] 	avg_time[28] 	0.047574610151
scalar level3_cost_network.client[28] 	interests_sent[28] 	180217
scalar level3_cost_network.client[39] 	hdistance[39] 	2.4184067365496
scalar level3_cost_network.client[39] 	downloads[39] 	178489
scalar level3_cost_network.client[39] 	avg_time[39] 	0.038150459084
scalar level3_cost_network.client[39] 	interests_sent[39] 	180091
