version 2
run General-1-20150720-15:50:55-12227
attr C 1e6
attr D lce
attr F spr
attr R lru
attr a 1
attr brates 1
attr configname General
attr ctlg 1e8
attr datetime 20150720-15:50:55
attr experiment General
attr inifile omnetpp.ini
attr iterationvars "$net=abilene_nodelay, $rep=0, $lambda=100, $a=1, $ctlg=1e8, $brates=1, $F=spr, $ttl=1000, $D=lce, $R=lru, $C=1e6, $window=60, $variance=0.05, $mytime=3600"
attr iterationvars2 "$net=abilene_nodelay, $rep=0, $lambda=100, $a=1, $ctlg=1e8, $brates=1, $F=spr, $ttl=1000, $D=lce, $R=lru, $C=1e6, $window=60, $variance=0.05, $mytime=3600, $repetition=0"
attr lambda 100
attr measurement "$net=abilene_nodelay, $rep=0, $lambda=100, $a=1, $ctlg=1e8, $brates=1, $F=spr, $ttl=1000, $D=lce, $R=lru, $C=1e6, $window=60, $variance=0.05, $mytime=3600"
attr mytime 3600
attr net abilene_nodelay
attr network networks.${net=abilene_nodelay}_network
attr processid 12227
attr rep 0
attr repetition 0
attr replication #0
attr resultdir results
attr runnumber 1
attr seedset 0
attr ttl 1000
attr variance 0.05
attr window 60

scalar . 	C 	1e6
scalar . 	a 	1
scalar . 	brates 	1
scalar . 	ctlg 	1e8
scalar . 	lambda 	100
scalar . 	mytime 	3600
scalar . 	rep 	0
scalar . 	ttl 	1000
scalar . 	variance 	0.05
scalar . 	window 	60
scalar abilene_nodelay_network.content_distribution 	repo-0 	5
scalar abilene_nodelay_network.content_distribution 	repo-1 	8
scalar abilene_nodelay_network.content_distribution 	repo-2 	9
scalar abilene_nodelay_network.content_distribution 	repo-3 	0
scalar abilene_nodelay_network.content_distribution 	repo-4 	1
scalar abilene_nodelay_network.content_distribution 	repo-5 	7
scalar abilene_nodelay_network.content_distribution 	repo-6 	6
scalar abilene_nodelay_network.content_distribution 	repo-7 	2
scalar abilene_nodelay_network.content_distribution 	repo-8 	4
scalar abilene_nodelay_network.content_distribution 	repo-9 	10
scalar abilene_nodelay_network.content_distribution 	repo-10 	3
scalar abilene_nodelay_network.content_distribution 	client-0 	10
scalar abilene_nodelay_network.content_distribution 	client-1 	9
scalar abilene_nodelay_network.content_distribution 	client-2 	8
scalar abilene_nodelay_network.content_distribution 	client-3 	7
scalar abilene_nodelay_network.content_distribution 	client-4 	3
scalar abilene_nodelay_network.content_distribution 	client-5 	6
scalar abilene_nodelay_network.content_distribution 	client-6 	5
scalar abilene_nodelay_network.content_distribution 	client-7 	1
scalar abilene_nodelay_network.content_distribution 	client-8 	4
scalar abilene_nodelay_network.content_distribution 	client-9 	0
scalar abilene_nodelay_network.content_distribution 	client-10 	2
scalar abilene_nodelay_network.content_distribution 	repo-0_card 	9095979
scalar abilene_nodelay_network.content_distribution 	repo-0_price 	0
scalar abilene_nodelay_network.content_distribution 	repo-1_card 	9088625
scalar abilene_nodelay_network.content_distribution 	repo-1_price 	0
scalar abilene_nodelay_network.content_distribution 	repo-2_card 	9091688
scalar abilene_nodelay_network.content_distribution 	repo-2_price 	0
scalar abilene_nodelay_network.content_distribution 	repo-3_card 	9088505
scalar abilene_nodelay_network.content_distribution 	repo-3_price 	0
scalar abilene_nodelay_network.content_distribution 	repo-4_card 	9088374
scalar abilene_nodelay_network.content_distribution 	repo-4_price 	0
scalar abilene_nodelay_network.content_distribution 	repo-5_card 	9091947
scalar abilene_nodelay_network.content_distribution 	repo-5_price 	0
scalar abilene_nodelay_network.content_distribution 	repo-6_card 	9088127
scalar abilene_nodelay_network.content_distribution 	repo-6_price 	0
scalar abilene_nodelay_network.content_distribution 	repo-7_card 	9091123
scalar abilene_nodelay_network.content_distribution 	repo-7_price 	0
scalar abilene_nodelay_network.content_distribution 	repo-8_card 	9090920
scalar abilene_nodelay_network.content_distribution 	repo-8_price 	0
scalar abilene_nodelay_network.content_distribution 	repo-9_card 	9093199
scalar abilene_nodelay_network.content_distribution 	repo-9_price 	0
scalar abilene_nodelay_network.content_distribution 	repo-10_card 	9091513
scalar abilene_nodelay_network.content_distribution 	repo-10_price 	0
scalar abilene_nodelay_network.statistics 	stabilization_time 	30558.2
scalar abilene_nodelay_network.statistics 	p_hit 	0.3760445164937
scalar abilene_nodelay_network.statistics 	interests 	611646.63636364
scalar abilene_nodelay_network.statistics 	data 	251571.72727273
scalar abilene_nodelay_network.statistics 	hdistance 	1.0599040528275
scalar abilene_nodelay_network.statistics 	avg_time 	0
scalar abilene_nodelay_network.statistics 	downloads 	3960824
scalar abilene_nodelay_network.statistics 	total_cost 	0
scalar abilene_nodelay_network.statistics 	total_replicas 	100000000
scalar abilene_nodelay_network.statistics 	"representations_downloaded 1:" 	0
scalar abilene_nodelay_network.statistics 	"slots_per_representation 100:" 	0
scalar abilene_nodelay_network.statistics 	inner_hit 	0.63877364911948
scalar abilene_nodelay_network.statistics 	execution_time 	1956
scalar abilene_nodelay_network.node[0].core_layer 	interests[0] 	453018
scalar abilene_nodelay_network.node[0].core_layer 	repo_load[0] 	121275
scalar abilene_nodelay_network.node[0].core_layer 	data[0] 	114091
scalar abilene_nodelay_network.node[0].core_layer 	slots_sent[face$o[1]->client[0]] 	36020300
scalar abilene_nodelay_network.node[0].core_layer 	slots_sent[face$o[2]->node[1]] 	7217800
scalar abilene_nodelay_network.node[0].core_layer 	slots_sent[face$o[3]->node[10]] 	2063700
scalar abilene_nodelay_network.node[0].content_store 	p_hit[0] 	0.48044890048519
scalar abilene_nodelay_network.node[0].content_store 	hits[0] 	217652
scalar abilene_nodelay_network.node[0].content_store 	misses[0] 	235366
scalar abilene_nodelay_network.node[0].content_store 	decision_yes[0] 	114091
scalar abilene_nodelay_network.node[0].content_store 	decision_no[0] 	121275
scalar abilene_nodelay_network.node[0].content_store 	decision_ratio[0] 	0.48473866233866
scalar abilene_nodelay_network.node[1].core_layer 	interests[1] 	697967
scalar abilene_nodelay_network.node[1].core_layer 	repo_load[1] 	137427
scalar abilene_nodelay_network.node[1].core_layer 	data[1] 	327201
scalar abilene_nodelay_network.node[1].core_layer 	slots_sent[face$o[1]->client[1]] 	36018700
scalar abilene_nodelay_network.node[1].core_layer 	slots_sent[face$o[2]->node[0]] 	9142700
scalar abilene_nodelay_network.node[1].core_layer 	slots_sent[face$o[3]->node[10]] 	6720700
scalar abilene_nodelay_network.node[1].core_layer 	slots_sent[face$o[4]->node[2]] 	17914600
scalar abilene_nodelay_network.node[1].content_store 	p_hit[1] 	0.33431236720361
scalar abilene_nodelay_network.node[1].content_store 	hits[1] 	233339
scalar abilene_nodelay_network.node[1].content_store 	misses[1] 	464628
scalar abilene_nodelay_network.node[1].content_store 	decision_yes[1] 	327201
scalar abilene_nodelay_network.node[1].content_store 	decision_no[1] 	137427
scalar abilene_nodelay_network.node[1].content_store 	decision_ratio[1] 	0.70422144166946
scalar abilene_nodelay_network.node[2].core_layer 	interests[2] 	876010
scalar abilene_nodelay_network.node[2].core_layer 	repo_load[2] 	142786
scalar abilene_nodelay_network.node[2].core_layer 	data[2] 	491985
scalar abilene_nodelay_network.node[2].core_layer 	slots_sent[face$o[1]->client[2]] 	36051500
scalar abilene_nodelay_network.node[2].core_layer 	slots_sent[face$o[2]->node[1]] 	19335600
scalar abilene_nodelay_network.node[2].core_layer 	slots_sent[face$o[3]->node[3]] 	23085400
scalar abilene_nodelay_network.node[2].core_layer 	slots_sent[face$o[4]->node[8]] 	9128500
scalar abilene_nodelay_network.node[2].content_store 	p_hit[2] 	0.2753838426502
scalar abilene_nodelay_network.node[2].content_store 	hits[2] 	241239
scalar abilene_nodelay_network.node[2].content_store 	misses[2] 	634771
scalar abilene_nodelay_network.node[2].content_store 	decision_yes[2] 	491985
scalar abilene_nodelay_network.node[2].content_store 	decision_no[2] 	142786
scalar abilene_nodelay_network.node[2].content_store 	decision_ratio[2] 	0.77505903703855
scalar abilene_nodelay_network.node[3].core_layer 	interests[3] 	829648
scalar abilene_nodelay_network.node[3].core_layer 	repo_load[3] 	132345
scalar abilene_nodelay_network.node[3].core_layer 	data[3] 	451671
scalar abilene_nodelay_network.node[3].core_layer 	slots_sent[face$o[1]->client[3]] 	36038500
scalar abilene_nodelay_network.node[3].core_layer 	slots_sent[face$o[2]->node[2]] 	22695300
scalar abilene_nodelay_network.node[3].core_layer 	slots_sent[face$o[3]->node[4]] 	14054900
scalar abilene_nodelay_network.node[3].core_layer 	slots_sent[face$o[4]->node[7]] 	10176100
scalar abilene_nodelay_network.node[3].content_store 	p_hit[3] 	0.29606772992884
scalar abilene_nodelay_network.node[3].content_store 	hits[3] 	245632
scalar abilene_nodelay_network.node[3].content_store 	misses[3] 	584016
scalar abilene_nodelay_network.node[3].content_store 	decision_yes[3] 	451671
scalar abilene_nodelay_network.node[3].content_store 	decision_no[3] 	132345
scalar abilene_nodelay_network.node[3].content_store 	decision_ratio[3] 	0.77338805786143
scalar abilene_nodelay_network.node[4].core_layer 	interests[4] 	565337
scalar abilene_nodelay_network.node[4].core_layer 	repo_load[4] 	124991
scalar abilene_nodelay_network.node[4].core_layer 	data[4] 	204913
scalar abilene_nodelay_network.node[4].core_layer 	slots_sent[face$o[1]->client[4]] 	36062800
scalar abilene_nodelay_network.node[4].core_layer 	slots_sent[face$o[2]->node[3]] 	12642300
scalar abilene_nodelay_network.node[4].core_layer 	slots_sent[face$o[3]->node[5]] 	7828600
scalar abilene_nodelay_network.node[4].content_store 	p_hit[4] 	0.41644718106192
scalar abilene_nodelay_network.node[4].content_store 	hits[4] 	235433
scalar abilene_nodelay_network.node[4].content_store 	misses[4] 	329904
scalar abilene_nodelay_network.node[4].content_store 	decision_yes[4] 	204913
scalar abilene_nodelay_network.node[4].content_store 	decision_no[4] 	124991
scalar abilene_nodelay_network.node[4].content_store 	decision_ratio[4] 	0.6211291769727
scalar abilene_nodelay_network.node[5].core_layer 	interests[5] 	472797
scalar abilene_nodelay_network.node[5].core_layer 	repo_load[5] 	136279
scalar abilene_nodelay_network.node[5].core_layer 	data[5] 	133383
scalar abilene_nodelay_network.node[5].core_layer 	slots_sent[face$o[1]->client[5]] 	35961200
scalar abilene_nodelay_network.node[5].core_layer 	slots_sent[face$o[2]->node[4]] 	6436400
scalar abilene_nodelay_network.node[5].core_layer 	slots_sent[face$o[3]->node[6]] 	4882100
scalar abilene_nodelay_network.node[5].content_store 	p_hit[5] 	0.42964528116718
scalar abilene_nodelay_network.node[5].content_store 	hits[5] 	203135
scalar abilene_nodelay_network.node[5].content_store 	misses[5] 	269662
scalar abilene_nodelay_network.node[5].content_store 	decision_yes[5] 	133383
scalar abilene_nodelay_network.node[5].content_store 	decision_no[5] 	136279
scalar abilene_nodelay_network.node[5].content_store 	decision_ratio[5] 	0.49463031498691
scalar abilene_nodelay_network.node[6].core_layer 	interests[6] 	517369
scalar abilene_nodelay_network.node[6].core_layer 	repo_load[6] 	120147
scalar abilene_nodelay_network.node[6].core_layer 	data[6] 	169345
scalar abilene_nodelay_network.node[6].core_layer 	slots_sent[face$o[1]->client[6]] 	36047200
scalar abilene_nodelay_network.node[6].core_layer 	slots_sent[face$o[2]->node[5]] 	5509700
scalar abilene_nodelay_network.node[6].core_layer 	slots_sent[face$o[3]->node[7]] 	10180000
scalar abilene_nodelay_network.node[6].content_store 	p_hit[6] 	0.44045352543349
scalar abilene_nodelay_network.node[6].content_store 	hits[6] 	227877
scalar abilene_nodelay_network.node[6].content_store 	misses[6] 	289492
scalar abilene_nodelay_network.node[6].content_store 	decision_yes[6] 	169345
scalar abilene_nodelay_network.node[6].content_store 	decision_no[6] 	120147
scalar abilene_nodelay_network.node[6].content_store 	decision_ratio[6] 	0.58497298716372
scalar abilene_nodelay_network.node[7].core_layer 	interests[7] 	658503
scalar abilene_nodelay_network.node[7].core_layer 	repo_load[7] 	130031
scalar abilene_nodelay_network.node[7].core_layer 	data[7] 	286585
scalar abilene_nodelay_network.node[7].core_layer 	slots_sent[face$o[1]->client[7]] 	36029200
scalar abilene_nodelay_network.node[7].core_layer 	slots_sent[face$o[2]->node[3]] 	9439400
scalar abilene_nodelay_network.node[7].core_layer 	slots_sent[face$o[3]->node[6]] 	12052400
scalar abilene_nodelay_network.node[7].core_layer 	slots_sent[face$o[4]->node[8]] 	8329300
scalar abilene_nodelay_network.node[7].content_store 	p_hit[7] 	0.36732862264864
scalar abilene_nodelay_network.node[7].content_store 	hits[7] 	241887
scalar abilene_nodelay_network.node[7].content_store 	misses[7] 	416616
scalar abilene_nodelay_network.node[7].content_store 	decision_yes[7] 	286585
scalar abilene_nodelay_network.node[7].content_store 	decision_no[7] 	130031
scalar abilene_nodelay_network.node[7].content_store 	decision_ratio[7] 	0.68788764713789
scalar abilene_nodelay_network.node[8].core_layer 	interests[8] 	637201
scalar abilene_nodelay_network.node[8].core_layer 	repo_load[8] 	128749
scalar abilene_nodelay_network.node[8].core_layer 	data[8] 	268282
scalar abilene_nodelay_network.node[8].core_layer 	slots_sent[face$o[1]->client[8]] 	35988400
scalar abilene_nodelay_network.node[8].core_layer 	slots_sent[face$o[2]->node[2]] 	8588600
scalar abilene_nodelay_network.node[8].core_layer 	slots_sent[face$o[3]->node[7]] 	8302400
scalar abilene_nodelay_network.node[8].core_layer 	slots_sent[face$o[4]->node[9]] 	10840700
scalar abilene_nodelay_network.node[8].content_store 	p_hit[8] 	0.37691403497484
scalar abilene_nodelay_network.node[8].content_store 	hits[8] 	240170
scalar abilene_nodelay_network.node[8].content_store 	misses[8] 	397031
scalar abilene_nodelay_network.node[8].content_store 	decision_yes[8] 	268282
scalar abilene_nodelay_network.node[8].content_store 	decision_no[8] 	128749
scalar abilene_nodelay_network.node[8].content_store 	decision_ratio[8] 	0.67572053567606
scalar abilene_nodelay_network.node[9].core_layer 	interests[9] 	515917
scalar abilene_nodelay_network.node[9].core_layer 	repo_load[9] 	122667
scalar abilene_nodelay_network.node[9].core_layer 	data[9] 	168346
scalar abilene_nodelay_network.node[9].core_layer 	slots_sent[face$o[1]->client[9]] 	35857000
scalar abilene_nodelay_network.node[9].core_layer 	slots_sent[face$o[2]->node[10]] 	6364300
scalar abilene_nodelay_network.node[9].core_layer 	slots_sent[face$o[3]->node[8]] 	9370400
scalar abilene_nodelay_network.node[9].content_store 	p_hit[9] 	0.43593058573375
scalar abilene_nodelay_network.node[9].content_store 	hits[9] 	224904
scalar abilene_nodelay_network.node[9].content_store 	misses[9] 	291013
scalar abilene_nodelay_network.node[9].content_store 	decision_yes[9] 	168346
scalar abilene_nodelay_network.node[9].content_store 	decision_no[9] 	122667
scalar abilene_nodelay_network.node[9].content_store 	decision_ratio[9] 	0.57848274819338
scalar abilene_nodelay_network.node[10].core_layer 	interests[10] 	504346
scalar abilene_nodelay_network.node[10].core_layer 	repo_load[10] 	134057
scalar abilene_nodelay_network.node[10].core_layer 	data[10] 	151487
scalar abilene_nodelay_network.node[10].core_layer 	slots_sent[face$o[1]->client[10]] 	36007600
scalar abilene_nodelay_network.node[10].core_layer 	slots_sent[face$o[2]->node[0]] 	2266400
scalar abilene_nodelay_network.node[10].core_layer 	slots_sent[face$o[3]->node[1]] 	6166700
scalar abilene_nodelay_network.node[10].core_layer 	slots_sent[face$o[4]->node[9]] 	5993900
scalar abilene_nodelay_network.node[10].content_store 	p_hit[10] 	0.43383312249924
scalar abilene_nodelay_network.node[10].content_store 	hits[10] 	218802
scalar abilene_nodelay_network.node[10].content_store 	misses[10] 	285544
scalar abilene_nodelay_network.node[10].content_store 	decision_yes[10] 	151487
scalar abilene_nodelay_network.node[10].content_store 	decision_no[10] 	134057
scalar abilene_nodelay_network.node[10].content_store 	decision_ratio[10] 	0.53052069033144
scalar abilene_nodelay_network.client[0] 	hdistance[0].real 	1.1631163538338
scalar abilene_nodelay_network.client[0] 	downloads[0].real 	360203
scalar abilene_nodelay_network.client[0] 	avg_time[0].real 	0
scalar abilene_nodelay_network.client[1] 	hdistance[1].real 	1.077118274674
scalar abilene_nodelay_network.client[1] 	downloads[1].real 	360187
scalar abilene_nodelay_network.client[1] 	avg_time[1].real 	0
scalar abilene_nodelay_network.client[2] 	hdistance[2].real 	0.97442270085849
scalar abilene_nodelay_network.client[2] 	downloads[2].real 	360515
scalar abilene_nodelay_network.client[2] 	avg_time[2].real 	0
scalar abilene_nodelay_network.client[3] 	hdistance[3].real 	0.97823161341343
scalar abilene_nodelay_network.client[3] 	downloads[3].real 	360385
scalar abilene_nodelay_network.client[3] 	avg_time[3].real 	0
scalar abilene_nodelay_network.client[4] 	hdistance[4].real 	1.0888311501048
scalar abilene_nodelay_network.client[4] 	downloads[4].real 	360628
scalar abilene_nodelay_network.client[4] 	avg_time[4].real 	0
scalar abilene_nodelay_network.client[5] 	hdistance[5].real 	1.2187941448005
scalar abilene_nodelay_network.client[5] 	downloads[5].real 	359612
scalar abilene_nodelay_network.client[5] 	avg_time[5].real 	0
scalar abilene_nodelay_network.client[6] 	hdistance[6].real 	1.1129630040613
scalar abilene_nodelay_network.client[6] 	downloads[6].real 	360472
scalar abilene_nodelay_network.client[6] 	avg_time[6].real 	0
scalar abilene_nodelay_network.client[7] 	hdistance[7].real 	0.96438166820246
scalar abilene_nodelay_network.client[7] 	downloads[7].real 	360292
scalar abilene_nodelay_network.client[7] 	avg_time[7].real 	0
scalar abilene_nodelay_network.client[8] 	hdistance[8].real 	0.93571817585667
scalar abilene_nodelay_network.client[8] 	downloads[8].real 	359884
scalar abilene_nodelay_network.client[8] 	avg_time[8].real 	0
scalar abilene_nodelay_network.client[9] 	hdistance[9].real 	1.0394065315002
scalar abilene_nodelay_network.client[9] 	downloads[9].real 	358570
scalar abilene_nodelay_network.client[9] 	avg_time[9].real 	0
scalar abilene_nodelay_network.client[10] 	hdistance[10].real 	1.1059609637966
scalar abilene_nodelay_network.client[10] 	downloads[10].real 	360076
scalar abilene_nodelay_network.client[10] 	avg_time[10].real 	0
