version 2
run General-17-20140712-03:19:02-9856
attr D fix0.01
attr F nrr
attr R lru
attr a 1
attr configname General
attr csize 1e6
attr ctlg 1e8
attr datetime 20140712-03:19:02
attr experiment General
attr inifile omnetpp.ini
attr iterationvars "$net=one_cache_scenario_3_links, $rep=5, $priceratiovalue=10, $weights=0.333_0.333_0.334, $lambda=100, $a=1, $ctlg=1e8, $F=nrr, $ttl=1000, $D=fix0.01, $xi=1, $R=lru, $csize=1e6, $pricebits=0, $window=60, $variance=0.05, $mytime=1800000"
attr iterationvars2 "$net=one_cache_scenario_3_links, $rep=5, $priceratiovalue=10, $weights=0.333_0.333_0.334, $lambda=100, $a=1, $ctlg=1e8, $F=nrr, $ttl=1000, $D=fix0.01, $xi=1, $R=lru, $csize=1e6, $pricebits=0, $window=60, $variance=0.05, $mytime=1800000, $repetition=0"
attr lambda 100
attr measurement "$net=one_cache_scenario_3_links, $rep=5, $priceratiovalue=10, $weights=0.333_0.333_0.334, $lambda=100, $a=1, $ctlg=1e8, $F=nrr, $ttl=1000, $D=fix0.01, $xi=1, $R=lru, $csize=1e6, $pricebits=0, $window=60, $variance=0.05, $mytime=1800000"
attr mytime 1800000
attr net one_cache_scenario_3_links
attr network networks.${net=one_cache_scenario_3_links}_network
attr pricebits 0
attr priceratiovalue 10
attr processid 9856
attr rep 5
attr repetition 0
attr replication #0
attr resultdir results
attr runnumber 17
attr seedset 5
attr ttl 1000
attr variance 0.05
attr weights 0.333_0.333_0.334
attr window 60
attr xi 1

scalar . 	a 	1
scalar . 	csize 	1e6
scalar . 	ctlg 	1e8
scalar . 	lambda 	100
scalar . 	mytime 	1800000
scalar . 	pricebits 	0
scalar . 	priceratiovalue 	10
scalar . 	rep 	5
scalar . 	ttl 	1000
scalar . 	variance 	0.05
scalar . 	window 	60
scalar . 	xi 	1
scalar one_cache_scenario_3_links_network.content_distribution 	repo-0 	4
scalar one_cache_scenario_3_links_network.content_distribution 	repo-1 	5
scalar one_cache_scenario_3_links_network.content_distribution 	repo-2 	6
scalar one_cache_scenario_3_links_network.content_distribution 	client-0 	0
scalar one_cache_scenario_3_links_network.content_distribution 	repo-0_card 	33303670
scalar one_cache_scenario_3_links_network.content_distribution 	repo-1_card 	33296525
scalar one_cache_scenario_3_links_network.content_distribution 	repo-2_card 	33399805
scalar one_cache_scenario_3_links_network.statistics 	repo_popularity[0] 	0.40328148760884
scalar one_cache_scenario_3_links_network.statistics 	repo_popularity[1] 	0.30653608776445
scalar one_cache_scenario_3_links_network.statistics 	repo_popularity[2] 	0.29018242462671
scalar one_cache_scenario_3_links_network.statistics 	stabilization_time 	36060
scalar one_cache_scenario_3_links_network.node[1].face$o[2].channel 	price[1] 	0
scalar one_cache_scenario_3_links_network.node[1].face$o[2].channel 	represented_price[1] 	0
scalar one_cache_scenario_3_links_network.node[2].face$o[2].channel 	price[2] 	0
scalar one_cache_scenario_3_links_network.node[2].face$o[2].channel 	represented_price[2] 	0
scalar one_cache_scenario_3_links_network.node[3].face$o[2].channel 	price[3] 	0
scalar one_cache_scenario_3_links_network.node[3].face$o[2].channel 	represented_price[3] 	0
scalar one_cache_scenario_3_links_network.node[4].face$o[1].channel 	price[4] 	0
scalar one_cache_scenario_3_links_network.node[4].face$o[1].channel 	represented_price[4] 	0
scalar one_cache_scenario_3_links_network.node[5].face$o[1].channel 	price[5] 	1
scalar one_cache_scenario_3_links_network.node[5].face$o[1].channel 	represented_price[5] 	1
scalar one_cache_scenario_3_links_network.node[6].face$o[1].channel 	price[6] 	10
scalar one_cache_scenario_3_links_network.node[6].face$o[1].channel 	represented_price[6] 	10
scalar one_cache_scenario_3_links_network.statistics 	p_hit 	0.34887170283893
scalar one_cache_scenario_3_links_network.statistics 	interests 	45441321.714286
scalar one_cache_scenario_3_links_network.statistics 	data 	19725420.285714
scalar one_cache_scenario_3_links_network.statistics 	hdistance 	0.76705148137669
scalar one_cache_scenario_3_links_network.statistics 	avg_time 	0
scalar one_cache_scenario_3_links_network.statistics 	downloads 	180011310
scalar one_cache_scenario_3_links_network.statistics 	total_cost 	253629302
scalar one_cache_scenario_3_links_network.statistics 	total_replicas 	100000000
scalar one_cache_scenario_3_links_network.statistics 	inner_hit 	0.61647425931182
scalar one_cache_scenario_3_links_network.statistics 	interests_sent 	180011310
scalar one_cache_scenario_3_links_network.node[0].core_layer 	interests[0] 	180011310
scalar one_cache_scenario_3_links_network.node[0].core_layer 	data[0] 	69038971
scalar one_cache_scenario_3_links_network.node[0].core_layer 	repo_int[0] 	69038971
scalar one_cache_scenario_3_links_network.node[0].content_store 	p_hit[0] 	0.61647425931182
scalar one_cache_scenario_3_links_network.node[0].content_store 	hits[0] 	110972339
scalar one_cache_scenario_3_links_network.node[0].content_store 	misses[0] 	69038971
scalar one_cache_scenario_3_links_network.node[0].content_store 	decision_yes[0] 	690816
scalar one_cache_scenario_3_links_network.node[0].content_store 	decision_no[0] 	68348155
scalar one_cache_scenario_3_links_network.node[0].content_store 	decision_ratio[0] 	0.01000617462853
scalar one_cache_scenario_3_links_network.node[1].core_layer 	interests[1] 	22969541
scalar one_cache_scenario_3_links_network.node[1].core_layer 	data[1] 	22969541
scalar one_cache_scenario_3_links_network.node[1].content_store 	p_hit[1] 	0
scalar one_cache_scenario_3_links_network.node[1].content_store 	hits[1] 	0
scalar one_cache_scenario_3_links_network.node[1].content_store 	misses[1] 	22969541
scalar one_cache_scenario_3_links_network.node[1].content_store 	decision_yes[1] 	0
scalar one_cache_scenario_3_links_network.node[1].content_store 	decision_no[1] 	22969541
scalar one_cache_scenario_3_links_network.node[1].content_store 	decision_ratio[1] 	0
scalar one_cache_scenario_3_links_network.node[2].core_layer 	interests[2] 	23007222
scalar one_cache_scenario_3_links_network.node[2].core_layer 	data[2] 	23007222
scalar one_cache_scenario_3_links_network.node[2].content_store 	p_hit[2] 	0
scalar one_cache_scenario_3_links_network.node[2].content_store 	hits[2] 	0
scalar one_cache_scenario_3_links_network.node[2].content_store 	misses[2] 	23007222
scalar one_cache_scenario_3_links_network.node[2].content_store 	decision_yes[2] 	0
scalar one_cache_scenario_3_links_network.node[2].content_store 	decision_no[2] 	23007222
scalar one_cache_scenario_3_links_network.node[2].content_store 	decision_ratio[2] 	0
scalar one_cache_scenario_3_links_network.node[3].core_layer 	interests[3] 	23062208
scalar one_cache_scenario_3_links_network.node[3].core_layer 	data[3] 	23062208
scalar one_cache_scenario_3_links_network.node[3].content_store 	p_hit[3] 	0
scalar one_cache_scenario_3_links_network.node[3].content_store 	hits[3] 	0
scalar one_cache_scenario_3_links_network.node[3].content_store 	misses[3] 	23062208
scalar one_cache_scenario_3_links_network.node[3].content_store 	decision_yes[3] 	0
scalar one_cache_scenario_3_links_network.node[3].content_store 	decision_no[3] 	23062208
scalar one_cache_scenario_3_links_network.node[3].content_store 	decision_ratio[3] 	0
scalar one_cache_scenario_3_links_network.node[4].core_layer 	interests[4] 	22969541
scalar one_cache_scenario_3_links_network.node[4].core_layer 	repo_load[4] 	22969541
scalar one_cache_scenario_3_links_network.node[4].core_layer 	data[4] 	0
scalar one_cache_scenario_3_links_network.node[4].content_store 	p_hit[4] 	0
scalar one_cache_scenario_3_links_network.node[4].content_store 	hits[4] 	0
scalar one_cache_scenario_3_links_network.node[4].content_store 	misses[4] 	22969541
scalar one_cache_scenario_3_links_network.node[4].content_store 	decision_yes[4] 	0
scalar one_cache_scenario_3_links_network.node[4].content_store 	decision_no[4] 	22969541
scalar one_cache_scenario_3_links_network.node[4].content_store 	decision_ratio[4] 	0
scalar one_cache_scenario_3_links_network.node[5].core_layer 	interests[5] 	23007222
scalar one_cache_scenario_3_links_network.node[5].core_layer 	repo_load[5] 	23007222
scalar one_cache_scenario_3_links_network.node[5].core_layer 	data[5] 	0
scalar one_cache_scenario_3_links_network.node[5].content_store 	p_hit[5] 	0
scalar one_cache_scenario_3_links_network.node[5].content_store 	hits[5] 	0
scalar one_cache_scenario_3_links_network.node[5].content_store 	misses[5] 	23007222
scalar one_cache_scenario_3_links_network.node[5].content_store 	decision_yes[5] 	0
scalar one_cache_scenario_3_links_network.node[5].content_store 	decision_no[5] 	23007222
scalar one_cache_scenario_3_links_network.node[5].content_store 	decision_ratio[5] 	0
scalar one_cache_scenario_3_links_network.node[6].core_layer 	interests[6] 	23062208
scalar one_cache_scenario_3_links_network.node[6].core_layer 	repo_load[6] 	23062208
scalar one_cache_scenario_3_links_network.node[6].core_layer 	data[6] 	0
scalar one_cache_scenario_3_links_network.node[6].content_store 	p_hit[6] 	0
scalar one_cache_scenario_3_links_network.node[6].content_store 	hits[6] 	0
scalar one_cache_scenario_3_links_network.node[6].content_store 	misses[6] 	23062208
scalar one_cache_scenario_3_links_network.node[6].content_store 	decision_yes[6] 	0
scalar one_cache_scenario_3_links_network.node[6].content_store 	decision_no[6] 	23062208
scalar one_cache_scenario_3_links_network.node[6].content_store 	decision_ratio[6] 	0
scalar one_cache_scenario_3_links_network.client[0] 	hdistance[0] 	0.76705148137669
scalar one_cache_scenario_3_links_network.client[0] 	downloads[0] 	180011310
scalar one_cache_scenario_3_links_network.client[0] 	avg_time[0] 	0
scalar one_cache_scenario_3_links_network.client[0] 	interests_sent[0] 	180011310
