version 2
run General-6-20141007-11:11:55-15311
attr D fix0.1
attr F spr
attr R lru
attr a 1
attr configname General
attr csize 1e3
attr ctlg 1e5
attr datetime 20141007-11:11:55
attr experiment General
attr inifile omnetpp.ini
attr iterationvars "$net=abilene_cost, $rep=2, $priceratiovalue=10, $weights=0.333_0.333_0.334, $lambda=100, $a=1, $ctlg=1e5, $F=spr, $ttl=10, $D=fix0.1, $xi=1, $R=lru, $csize=1e3, $pricebits=0, $window=60, $variance=0.05, $mytime=1800"
attr iterationvars2 "$net=abilene_cost, $rep=2, $priceratiovalue=10, $weights=0.333_0.333_0.334, $lambda=100, $a=1, $ctlg=1e5, $F=spr, $ttl=10, $D=fix0.1, $xi=1, $R=lru, $csize=1e3, $pricebits=0, $window=60, $variance=0.05, $mytime=1800, $repetition=0"
attr lambda 100
attr measurement "$net=abilene_cost, $rep=2, $priceratiovalue=10, $weights=0.333_0.333_0.334, $lambda=100, $a=1, $ctlg=1e5, $F=spr, $ttl=10, $D=fix0.1, $xi=1, $R=lru, $csize=1e3, $pricebits=0, $window=60, $variance=0.05, $mytime=1800"
attr mytime 1800
attr net abilene_cost
attr network networks.${net=abilene_cost,geant_cost}_network
attr pricebits 0
attr priceratiovalue 10
attr processid 15311
attr rep 2
attr repetition 0
attr replication #0
attr resultdir results
attr runnumber 6
attr seedset 2
attr ttl 10
attr variance 0.05
attr weights 0.333_0.333_0.334
attr window 60
attr xi 1

scalar . 	a 	1
scalar . 	csize 	1e3
scalar . 	ctlg 	1e5
scalar . 	lambda 	100
scalar . 	mytime 	1800
scalar . 	pricebits 	0
scalar . 	priceratiovalue 	10
scalar . 	rep 	2
scalar . 	ttl 	10
scalar . 	variance 	0.05
scalar . 	window 	60
scalar . 	xi 	1
scalar abilene_cost_network.content_distribution 	repo-0 	4
scalar abilene_cost_network.content_distribution 	repo-1 	9
scalar abilene_cost_network.content_distribution 	repo-2 	6
scalar abilene_cost_network.content_distribution 	client-0 	3
scalar abilene_cost_network.content_distribution 	client-1 	7
scalar abilene_cost_network.content_distribution 	client-2 	9
scalar abilene_cost_network.content_distribution 	repo-0_card 	33329
scalar abilene_cost_network.content_distribution 	repo-0_price 	1
scalar abilene_cost_network.content_distribution 	repo-1_card 	33052
scalar abilene_cost_network.content_distribution 	repo-1_price 	10
scalar abilene_cost_network.content_distribution 	repo-2_card 	33619
scalar abilene_cost_network.content_distribution 	repo-2_price 	0
scalar abilene_cost_network.statistics 	repo_popularity[0] 	0.33984204835506
scalar abilene_cost_network.statistics 	repo_popularity[1] 	0.39407385110283
scalar abilene_cost_network.statistics 	repo_popularity[2] 	0.26608410054213
scalar abilene_cost_network.statistics 	stabilization_time 	36060
scalar abilene_cost_network.statistics 	p_hit 	0.18941395333723
scalar abilene_cost_network.statistics 	interests 	111905.45454545
scalar abilene_cost_network.statistics 	data 	62822.363636364
scalar abilene_cost_network.statistics 	hdistance 	1.8486140492304
scalar abilene_cost_network.statistics 	avg_time 	0.009326279629
scalar abilene_cost_network.statistics 	downloads 	539735
scalar abilene_cost_network.statistics 	total_cost 	1200752
scalar abilene_cost_network.statistics 	total_replicas 	100000
scalar abilene_cost_network.statistics 	inner_hit 	0.43208796909595
scalar abilene_cost_network.node[0].core_layer 	interests[0] 	0
scalar abilene_cost_network.node[0].core_layer 	data[0] 	0
scalar abilene_cost_network.node[0].core_layer 	repo_int[0] 	306522
scalar abilene_cost_network.node[0].content_store 	p_hit[0] 	-nan
scalar abilene_cost_network.node[0].content_store 	hits[0] 	0
scalar abilene_cost_network.node[0].content_store 	misses[0] 	0
scalar abilene_cost_network.node[0].content_store 	decision_yes[0] 	0
scalar abilene_cost_network.node[0].content_store 	decision_no[0] 	0
scalar abilene_cost_network.node[0].content_store 	decision_ratio[0] 	0
scalar abilene_cost_network.node[1].core_layer 	interests[1] 	0
scalar abilene_cost_network.node[1].core_layer 	data[1] 	0
scalar abilene_cost_network.node[1].content_store 	p_hit[1] 	-nan
scalar abilene_cost_network.node[1].content_store 	hits[1] 	0
scalar abilene_cost_network.node[1].content_store 	misses[1] 	0
scalar abilene_cost_network.node[1].content_store 	decision_yes[1] 	0
scalar abilene_cost_network.node[1].content_store 	decision_no[1] 	0
scalar abilene_cost_network.node[1].content_store 	decision_ratio[1] 	0
scalar abilene_cost_network.node[2].core_layer 	interests[2] 	81201
scalar abilene_cost_network.node[2].core_layer 	data[2] 	74146
scalar abilene_cost_network.node[2].content_store 	p_hit[2] 	0.086870851344195
scalar abilene_cost_network.node[2].content_store 	hits[2] 	7054
scalar abilene_cost_network.node[2].content_store 	misses[2] 	74147
scalar abilene_cost_network.node[2].content_store 	decision_yes[2] 	7368
scalar abilene_cost_network.node[2].content_store 	decision_no[2] 	66778
scalar abilene_cost_network.node[2].content_store 	decision_ratio[2] 	0.099371510263534
scalar abilene_cost_network.node[3].core_layer 	interests[3] 	255810
scalar abilene_cost_network.node[3].core_layer 	data[3] 	191068
scalar abilene_cost_network.node[3].content_store 	p_hit[3] 	0.25284390758766
scalar abilene_cost_network.node[3].content_store 	hits[3] 	64680
scalar abilene_cost_network.node[3].content_store 	misses[3] 	191130
scalar abilene_cost_network.node[3].content_store 	decision_yes[3] 	18966
scalar abilene_cost_network.node[3].content_store 	decision_no[3] 	172102
scalar abilene_cost_network.node[3].content_store 	decision_ratio[3] 	0.099263089580673
scalar abilene_cost_network.node[4].core_layer 	interests[4] 	106324
scalar abilene_cost_network.node[4].core_layer 	repo_load[4] 	97182
scalar abilene_cost_network.node[4].core_layer 	data[4] 	0
scalar abilene_cost_network.node[4].content_store 	p_hit[4] 	0.085982468680637
scalar abilene_cost_network.node[4].content_store 	hits[4] 	9142
scalar abilene_cost_network.node[4].content_store 	misses[4] 	97182
scalar abilene_cost_network.node[4].content_store 	decision_yes[4] 	9647
scalar abilene_cost_network.node[4].content_store 	decision_no[4] 	87535
scalar abilene_cost_network.node[4].content_store 	decision_ratio[4] 	0.099267354036756
scalar abilene_cost_network.node[5].core_layer 	interests[5] 	0
scalar abilene_cost_network.node[5].core_layer 	data[5] 	0
scalar abilene_cost_network.node[5].content_store 	p_hit[5] 	-nan
scalar abilene_cost_network.node[5].content_store 	hits[5] 	0
scalar abilene_cost_network.node[5].content_store 	misses[5] 	0
scalar abilene_cost_network.node[5].content_store 	decision_yes[5] 	0
scalar abilene_cost_network.node[5].content_store 	decision_no[5] 	0
scalar abilene_cost_network.node[5].content_store 	decision_ratio[5] 	0
scalar abilene_cost_network.node[6].core_layer 	interests[6] 	109596
scalar abilene_cost_network.node[6].core_layer 	repo_load[6] 	98983
scalar abilene_cost_network.node[6].core_layer 	data[6] 	0
scalar abilene_cost_network.node[6].content_store 	p_hit[6] 	0.096837475820285
scalar abilene_cost_network.node[6].content_store 	hits[6] 	10613
scalar abilene_cost_network.node[6].content_store 	misses[6] 	98983
scalar abilene_cost_network.node[6].content_store 	decision_yes[6] 	9995
scalar abilene_cost_network.node[6].content_store 	decision_no[6] 	88988
scalar abilene_cost_network.node[6].content_store 	decision_ratio[6] 	0.10097693543336
scalar abilene_cost_network.node[7].core_layer 	interests[7] 	261071
scalar abilene_cost_network.node[7].core_layer 	data[7] 	192407
scalar abilene_cost_network.node[7].content_store 	p_hit[7] 	0.26273312623769
scalar abilene_cost_network.node[7].content_store 	hits[7] 	68592
scalar abilene_cost_network.node[7].content_store 	misses[7] 	192479
scalar abilene_cost_network.node[7].content_store 	decision_yes[7] 	19182
scalar abilene_cost_network.node[7].content_store 	decision_no[7] 	173225
scalar abilene_cost_network.node[7].content_store 	decision_ratio[7] 	0.09969491754458
scalar abilene_cost_network.node[8].core_layer 	interests[8] 	162593
scalar abilene_cost_network.node[8].core_layer 	data[8] 	151781
scalar abilene_cost_network.node[8].content_store 	p_hit[8] 	0.066362020505188
scalar abilene_cost_network.node[8].content_store 	hits[8] 	10790
scalar abilene_cost_network.node[8].content_store 	misses[8] 	151803
scalar abilene_cost_network.node[8].content_store 	decision_yes[8] 	14994
scalar abilene_cost_network.node[8].content_store 	decision_no[8] 	136787
scalar abilene_cost_network.node[8].content_store 	decision_ratio[8] 	0.098787068210119
scalar abilene_cost_network.node[9].core_layer 	interests[9] 	254365
scalar abilene_cost_network.node[9].core_layer 	repo_load[9] 	110357
scalar abilene_cost_network.node[9].core_layer 	data[9] 	81644
scalar abilene_cost_network.node[9].content_store 	p_hit[9] 	0.2448843197767
scalar abilene_cost_network.node[9].content_store 	hits[9] 	62290
scalar abilene_cost_network.node[9].content_store 	misses[9] 	192075
scalar abilene_cost_network.node[9].content_store 	decision_yes[9] 	19138
scalar abilene_cost_network.node[9].content_store 	decision_no[9] 	172863
scalar abilene_cost_network.node[9].content_store 	decision_ratio[9] 	0.099676564184562
scalar abilene_cost_network.node[10].core_layer 	interests[10] 	0
scalar abilene_cost_network.node[10].core_layer 	data[10] 	0
scalar abilene_cost_network.node[10].content_store 	p_hit[10] 	-nan
scalar abilene_cost_network.node[10].content_store 	hits[10] 	0
scalar abilene_cost_network.node[10].content_store 	misses[10] 	0
scalar abilene_cost_network.node[10].content_store 	decision_yes[10] 	0
scalar abilene_cost_network.node[10].content_store 	decision_no[10] 	0
scalar abilene_cost_network.node[10].content_store 	decision_ratio[10] 	0
scalar abilene_cost_network.client[3] 	hdistance[3] 	1.8451417285599
scalar abilene_cost_network.client[3] 	downloads[3] 	179745
scalar abilene_cost_network.client[3] 	avg_time[3] 	0.008171480036
scalar abilene_cost_network.client[7] 	hdistance[7] 	1.6544459052406
scalar abilene_cost_network.client[7] 	downloads[7] 	180267
scalar abilene_cost_network.client[7] 	avg_time[7] 	0.007560654506
scalar abilene_cost_network.client[9] 	hdistance[9] 	2.0462545138908
scalar abilene_cost_network.client[9] 	downloads[9] 	179723
scalar abilene_cost_network.client[9] 	avg_time[9] 	0.012246704345
