version 2
run General-6-20141007-11:38:16-22059
attr D fix0.1
attr F spr
attr R lru
attr a 1
attr configname General
attr csize 1e3
attr ctlg 1e5
attr datetime 20141007-11:38:16
attr experiment General
attr inifile omnetpp.ini
attr iterationvars "$net=abilene_cost, $rep=3, $priceratiovalue=10, $weights=0.333_0.333_0.334, $lambda=100, $a=1, $ctlg=1e5, $F=spr, $ttl=10, $D=fix0.1, $xi=1, $R=lru, $csize=1e3, $pricebits=0, $window=60, $variance=0.05, $mytime=1800"
attr iterationvars2 "$net=abilene_cost, $rep=3, $priceratiovalue=10, $weights=0.333_0.333_0.334, $lambda=100, $a=1, $ctlg=1e5, $F=spr, $ttl=10, $D=fix0.1, $xi=1, $R=lru, $csize=1e3, $pricebits=0, $window=60, $variance=0.05, $mytime=1800, $repetition=0"
attr lambda 100
attr measurement "$net=abilene_cost, $rep=3, $priceratiovalue=10, $weights=0.333_0.333_0.334, $lambda=100, $a=1, $ctlg=1e5, $F=spr, $ttl=10, $D=fix0.1, $xi=1, $R=lru, $csize=1e3, $pricebits=0, $window=60, $variance=0.05, $mytime=1800"
attr mytime 1800
attr net abilene_cost
attr network networks.${net=abilene_cost,geant_cost}_network
attr pricebits 0
attr priceratiovalue 10
attr processid 22059
attr rep 3
attr repetition 0
attr replication #0
attr resultdir results
attr runnumber 6
attr seedset 3
attr ttl 10
attr variance 0.05
attr weights 0.333_0.333_0.334
attr window 60
attr xi 1

scalar . 	a 	1
scalar . 	csize 	1e3
scalar . 	ctlg 	1e5
scalar . 	lambda 	100
scalar . 	mytime 	1800
scalar . 	pricebits 	0
scalar . 	priceratiovalue 	10
scalar . 	rep 	3
scalar . 	ttl 	10
scalar . 	variance 	0.05
scalar . 	window 	60
scalar . 	xi 	1
scalar abilene_cost_network.content_distribution 	repo-0 	9
scalar abilene_cost_network.content_distribution 	repo-1 	4
scalar abilene_cost_network.content_distribution 	repo-2 	0
scalar abilene_cost_network.content_distribution 	client-0 	9
scalar abilene_cost_network.content_distribution 	client-1 	0
scalar abilene_cost_network.content_distribution 	client-2 	1
scalar abilene_cost_network.content_distribution 	repo-0_card 	33498
scalar abilene_cost_network.content_distribution 	repo-0_price 	0
scalar abilene_cost_network.content_distribution 	repo-1_card 	33168
scalar abilene_cost_network.content_distribution 	repo-1_price 	10
scalar abilene_cost_network.content_distribution 	repo-2_card 	33334
scalar abilene_cost_network.content_distribution 	repo-2_price 	1
scalar abilene_cost_network.statistics 	repo_popularity[0] 	0.34820484875244
scalar abilene_cost_network.statistics 	repo_popularity[1] 	0.25519349814637
scalar abilene_cost_network.statistics 	repo_popularity[2] 	0.3966016531012
scalar abilene_cost_network.statistics 	stabilization_time 	36060
scalar abilene_cost_network.statistics 	p_hit 	0.19604046464599
scalar abilene_cost_network.statistics 	interests 	108970.54545455
scalar abilene_cost_network.statistics 	data 	59971.272727273
scalar abilene_cost_network.statistics 	hdistance 	1.7883016641604
scalar abilene_cost_network.statistics 	avg_time 	0.007880994653
scalar abilene_cost_network.statistics 	downloads 	538825
scalar abilene_cost_network.statistics 	total_cost 	994438
scalar abilene_cost_network.statistics 	total_replicas 	100000
scalar abilene_cost_network.statistics 	inner_hit 	0.43616387509859
scalar abilene_cost_network.node[0].core_layer 	interests[0] 	254982
scalar abilene_cost_network.node[0].core_layer 	repo_load[0] 	104238
scalar abilene_cost_network.node[0].core_layer 	data[0] 	84493
scalar abilene_cost_network.node[0].core_layer 	repo_int[0] 	303809
scalar abilene_cost_network.node[0].content_store 	p_hit[0] 	0.25960656046309
scalar abilene_cost_network.node[0].content_store 	hits[0] 	66195
scalar abilene_cost_network.node[0].content_store 	misses[0] 	188787
scalar abilene_cost_network.node[0].content_store 	decision_yes[0] 	18799
scalar abilene_cost_network.node[0].content_store 	decision_no[0] 	169932
scalar abilene_cost_network.node[0].content_store 	decision_ratio[0] 	0.099607377696298
scalar abilene_cost_network.node[1].core_layer 	interests[1] 	221597
scalar abilene_cost_network.node[1].core_layer 	data[1] 	157241
scalar abilene_cost_network.node[1].content_store 	p_hit[1] 	0.290071616493
scalar abilene_cost_network.node[1].content_store 	hits[1] 	64279
scalar abilene_cost_network.node[1].content_store 	misses[1] 	157318
scalar abilene_cost_network.node[1].content_store 	decision_yes[1] 	15720
scalar abilene_cost_network.node[1].content_store 	decision_no[1] 	141521
scalar abilene_cost_network.node[1].content_store 	decision_ratio[1] 	0.099973925375697
scalar abilene_cost_network.node[2].core_layer 	interests[2] 	109788
scalar abilene_cost_network.node[2].core_layer 	data[2] 	98738
scalar abilene_cost_network.node[2].content_store 	p_hit[2] 	0.10062119721645
scalar abilene_cost_network.node[2].content_store 	hits[2] 	11047
scalar abilene_cost_network.node[2].content_store 	misses[2] 	98741
scalar abilene_cost_network.node[2].content_store 	decision_yes[2] 	9913
scalar abilene_cost_network.node[2].content_store 	decision_no[2] 	88825
scalar abilene_cost_network.node[2].content_store 	decision_ratio[2] 	0.1003970102696
scalar abilene_cost_network.node[3].core_layer 	interests[3] 	98739
scalar abilene_cost_network.node[3].core_layer 	data[3] 	92870
scalar abilene_cost_network.node[3].content_store 	p_hit[3] 	0.059449660215315
scalar abilene_cost_network.node[3].content_store 	hits[3] 	5870
scalar abilene_cost_network.node[3].content_store 	misses[3] 	92869
scalar abilene_cost_network.node[3].content_store 	decision_yes[3] 	9147
scalar abilene_cost_network.node[3].content_store 	decision_no[3] 	83723
scalar abilene_cost_network.node[3].content_store 	decision_ratio[3] 	0.098492516420803
scalar abilene_cost_network.node[4].core_layer 	interests[4] 	92870
scalar abilene_cost_network.node[4].core_layer 	repo_load[4] 	89020
scalar abilene_cost_network.node[4].core_layer 	data[4] 	0
scalar abilene_cost_network.node[4].content_store 	p_hit[4] 	0.04145579842791
scalar abilene_cost_network.node[4].content_store 	hits[4] 	3850
scalar abilene_cost_network.node[4].content_store 	misses[4] 	89020
scalar abilene_cost_network.node[4].content_store 	decision_yes[4] 	8977
scalar abilene_cost_network.node[4].content_store 	decision_no[4] 	80043
scalar abilene_cost_network.node[4].content_store 	decision_ratio[4] 	0.10084250730173
scalar abilene_cost_network.node[5].core_layer 	interests[5] 	0
scalar abilene_cost_network.node[5].core_layer 	data[5] 	0
scalar abilene_cost_network.node[5].content_store 	p_hit[5] 	-nan
scalar abilene_cost_network.node[5].content_store 	hits[5] 	0
scalar abilene_cost_network.node[5].content_store 	misses[5] 	0
scalar abilene_cost_network.node[5].content_store 	decision_yes[5] 	0
scalar abilene_cost_network.node[5].content_store 	decision_no[5] 	0
scalar abilene_cost_network.node[5].content_store 	decision_ratio[5] 	0
scalar abilene_cost_network.node[6].core_layer 	interests[6] 	0
scalar abilene_cost_network.node[6].core_layer 	data[6] 	0
scalar abilene_cost_network.node[6].content_store 	p_hit[6] 	-nan
scalar abilene_cost_network.node[6].content_store 	hits[6] 	0
scalar abilene_cost_network.node[6].content_store 	misses[6] 	0
scalar abilene_cost_network.node[6].content_store 	decision_yes[6] 	0
scalar abilene_cost_network.node[6].content_store 	decision_no[6] 	0
scalar abilene_cost_network.node[6].content_store 	decision_ratio[6] 	0
scalar abilene_cost_network.node[7].core_layer 	interests[7] 	0
scalar abilene_cost_network.node[7].core_layer 	data[7] 	0
scalar abilene_cost_network.node[7].content_store 	p_hit[7] 	-nan
scalar abilene_cost_network.node[7].content_store 	hits[7] 	0
scalar abilene_cost_network.node[7].content_store 	misses[7] 	0
scalar abilene_cost_network.node[7].content_store 	decision_yes[7] 	0
scalar abilene_cost_network.node[7].content_store 	decision_no[7] 	0
scalar abilene_cost_network.node[7].content_store 	decision_ratio[7] 	0
scalar abilene_cost_network.node[8].core_layer 	interests[8] 	41916
scalar abilene_cost_network.node[8].core_layer 	data[8] 	33742
scalar abilene_cost_network.node[8].content_store 	p_hit[8] 	0.19500906575055
scalar abilene_cost_network.node[8].content_store 	hits[8] 	8174
scalar abilene_cost_network.node[8].content_store 	misses[8] 	33742
scalar abilene_cost_network.node[8].content_store 	decision_yes[8] 	3336
scalar abilene_cost_network.node[8].content_store 	decision_no[8] 	30406
scalar abilene_cost_network.node[8].content_store 	decision_ratio[8] 	0.098867879793729
scalar abilene_cost_network.node[9].core_layer 	interests[9] 	253949
scalar abilene_cost_network.node[9].core_layer 	repo_load[9] 	110551
scalar abilene_cost_network.node[9].core_layer 	data[9] 	81782
scalar abilene_cost_network.node[9].content_store 	p_hit[9] 	0.24241875337174
scalar abilene_cost_network.node[9].content_store 	hits[9] 	61562
scalar abilene_cost_network.node[9].content_store 	misses[9] 	192387
scalar abilene_cost_network.node[9].content_store 	decision_yes[9] 	19302
scalar abilene_cost_network.node[9].content_store 	decision_no[9] 	173031
scalar abilene_cost_network.node[9].content_store 	decision_ratio[9] 	0.1003571929934
scalar abilene_cost_network.node[10].core_layer 	interests[10] 	124835
scalar abilene_cost_network.node[10].core_layer 	data[10] 	110818
scalar abilene_cost_network.node[10].content_store 	p_hit[10] 	0.11224416229423
scalar abilene_cost_network.node[10].content_store 	hits[10] 	14012
scalar abilene_cost_network.node[10].content_store 	misses[10] 	110823
scalar abilene_cost_network.node[10].content_store 	decision_yes[10] 	10891
scalar abilene_cost_network.node[10].content_store 	decision_no[10] 	99927
scalar abilene_cost_network.node[10].content_store 	decision_ratio[10] 	0.098278258044722
scalar abilene_cost_network.client[0] 	hdistance[0] 	1.8120715067331
scalar abilene_cost_network.client[0] 	downloads[0] 	179116
scalar abilene_cost_network.client[0] 	avg_time[0] 	0.007528106514
scalar abilene_cost_network.client[1] 	hdistance[1] 	1.7967949859732
scalar abilene_cost_network.client[1] 	downloads[1] 	179656
scalar abilene_cost_network.client[1] 	avg_time[1] 	0.007948845053
scalar abilene_cost_network.client[9] 	hdistance[9] 	1.7560384997751
scalar abilene_cost_network.client[9] 	downloads[9] 	180053
scalar abilene_cost_network.client[9] 	avg_time[9] 	0.008166032392
