version 2
run General-6-20141007-10:43:53-8388
attr D fix0.1
attr F spr
attr R lru
attr a 1
attr configname General
attr csize 1e3
attr ctlg 1e5
attr datetime 20141007-10:43:53
attr experiment General
attr inifile omnetpp.ini
attr iterationvars "$net=abilene_cost, $rep=1, $priceratiovalue=10, $weights=0.333_0.333_0.334, $lambda=100, $a=1, $ctlg=1e5, $F=spr, $ttl=10, $D=fix0.1, $xi=1, $R=lru, $csize=1e3, $pricebits=0, $window=60, $variance=0.05, $mytime=1800"
attr iterationvars2 "$net=abilene_cost, $rep=1, $priceratiovalue=10, $weights=0.333_0.333_0.334, $lambda=100, $a=1, $ctlg=1e5, $F=spr, $ttl=10, $D=fix0.1, $xi=1, $R=lru, $csize=1e3, $pricebits=0, $window=60, $variance=0.05, $mytime=1800, $repetition=0"
attr lambda 100
attr measurement "$net=abilene_cost, $rep=1, $priceratiovalue=10, $weights=0.333_0.333_0.334, $lambda=100, $a=1, $ctlg=1e5, $F=spr, $ttl=10, $D=fix0.1, $xi=1, $R=lru, $csize=1e3, $pricebits=0, $window=60, $variance=0.05, $mytime=1800"
attr mytime 1800
attr net abilene_cost
attr network networks.${net=abilene_cost,geant_cost}_network
attr pricebits 0
attr priceratiovalue 10
attr processid 8388
attr rep 1
attr repetition 0
attr replication #0
attr resultdir results
attr runnumber 6
attr seedset 1
attr ttl 10
attr variance 0.05
attr weights 0.333_0.333_0.334
attr window 60
attr xi 1

scalar . 	a 	1
scalar . 	csize 	1e3
scalar . 	ctlg 	1e5
scalar . 	lambda 	100
scalar . 	mytime 	1800
scalar . 	pricebits 	0
scalar . 	priceratiovalue 	10
scalar . 	rep 	1
scalar . 	ttl 	10
scalar . 	variance 	0.05
scalar . 	window 	60
scalar . 	xi 	1
scalar abilene_cost_network.content_distribution 	repo-0 	10
scalar abilene_cost_network.content_distribution 	repo-1 	7
scalar abilene_cost_network.content_distribution 	repo-2 	5
scalar abilene_cost_network.content_distribution 	client-0 	8
scalar abilene_cost_network.content_distribution 	client-1 	7
scalar abilene_cost_network.content_distribution 	client-2 	2
scalar abilene_cost_network.content_distribution 	repo-0_card 	33397
scalar abilene_cost_network.content_distribution 	repo-0_price 	0
scalar abilene_cost_network.content_distribution 	repo-1_card 	33041
scalar abilene_cost_network.content_distribution 	repo-1_price 	10
scalar abilene_cost_network.content_distribution 	repo-2_card 	33562
scalar abilene_cost_network.content_distribution 	repo-2_price 	1
scalar abilene_cost_network.statistics 	repo_popularity[0] 	0.36106327575467
scalar abilene_cost_network.statistics 	repo_popularity[1] 	0.3490006524958
scalar abilene_cost_network.statistics 	repo_popularity[2] 	0.28993607174955
scalar abilene_cost_network.statistics 	stabilization_time 	36060
scalar abilene_cost_network.statistics 	p_hit 	0.19657061201119
scalar abilene_cost_network.statistics 	interests 	110186.63636364
scalar abilene_cost_network.statistics 	data 	61109.727272727
scalar abilene_cost_network.statistics 	hdistance 	1.8037704329772
scalar abilene_cost_network.statistics 	avg_time 	0.008026056424
scalar abilene_cost_network.statistics 	downloads 	539695
scalar abilene_cost_network.statistics 	total_cost 	1204361
scalar abilene_cost_network.statistics 	total_replicas 	100000
scalar abilene_cost_network.statistics 	inner_hit 	0.44156421682617
scalar abilene_cost_network.node[0].core_layer 	interests[0] 	0
scalar abilene_cost_network.node[0].core_layer 	data[0] 	0
scalar abilene_cost_network.node[0].core_layer 	repo_int[0] 	301385
scalar abilene_cost_network.node[0].content_store 	p_hit[0] 	-nan
scalar abilene_cost_network.node[0].content_store 	hits[0] 	0
scalar abilene_cost_network.node[0].content_store 	misses[0] 	0
scalar abilene_cost_network.node[0].content_store 	decision_yes[0] 	0
scalar abilene_cost_network.node[0].content_store 	decision_no[0] 	0
scalar abilene_cost_network.node[0].content_store 	decision_ratio[0] 	0
scalar abilene_cost_network.node[1].core_layer 	interests[1] 	39829
scalar abilene_cost_network.node[1].core_layer 	data[1] 	33890
scalar abilene_cost_network.node[1].content_store 	p_hit[1] 	0.14911245574832
scalar abilene_cost_network.node[1].content_store 	hits[1] 	5939
scalar abilene_cost_network.node[1].content_store 	misses[1] 	33890
scalar abilene_cost_network.node[1].content_store 	decision_yes[1] 	3322
scalar abilene_cost_network.node[1].content_store 	decision_no[1] 	30568
scalar abilene_cost_network.node[1].content_store 	decision_ratio[1] 	0.098023015638832
scalar abilene_cost_network.node[2].core_layer 	interests[2] 	180760
scalar abilene_cost_network.node[2].core_layer 	data[2] 	118569
scalar abilene_cost_network.node[2].content_store 	p_hit[2] 	0.34383159991148
scalar abilene_cost_network.node[2].content_store 	hits[2] 	62151
scalar abilene_cost_network.node[2].content_store 	misses[2] 	118609
scalar abilene_cost_network.node[2].content_store 	decision_yes[2] 	11929
scalar abilene_cost_network.node[2].content_store 	decision_no[2] 	106640
scalar abilene_cost_network.node[2].content_store 	decision_ratio[2] 	0.1006080847439
scalar abilene_cost_network.node[3].core_layer 	interests[3] 	78739
scalar abilene_cost_network.node[3].core_layer 	data[3] 	72716
scalar abilene_cost_network.node[3].content_store 	p_hit[3] 	0.076493224450399
scalar abilene_cost_network.node[3].content_store 	hits[3] 	6023
scalar abilene_cost_network.node[3].content_store 	misses[3] 	72716
scalar abilene_cost_network.node[3].content_store 	decision_yes[3] 	7267
scalar abilene_cost_network.node[3].content_store 	decision_no[3] 	65449
scalar abilene_cost_network.node[3].content_store 	decision_ratio[3] 	0.09993674019473
scalar abilene_cost_network.node[4].core_layer 	interests[4] 	36848
scalar abilene_cost_network.node[4].core_layer 	data[4] 	33595
scalar abilene_cost_network.node[4].content_store 	p_hit[4] 	0.088281589231437
scalar abilene_cost_network.node[4].content_store 	hits[4] 	3253
scalar abilene_cost_network.node[4].content_store 	misses[4] 	33595
scalar abilene_cost_network.node[4].content_store 	decision_yes[4] 	3402
scalar abilene_cost_network.node[4].content_store 	decision_no[4] 	30193
scalar abilene_cost_network.node[4].content_store 	decision_ratio[4] 	0.10126506920673
scalar abilene_cost_network.node[5].core_layer 	interests[5] 	101645
scalar abilene_cost_network.node[5].core_layer 	repo_load[5] 	95831
scalar abilene_cost_network.node[5].core_layer 	data[5] 	0
scalar abilene_cost_network.node[5].content_store 	p_hit[5] 	0.05719907521275
scalar abilene_cost_network.node[5].content_store 	hits[5] 	5814
scalar abilene_cost_network.node[5].content_store 	misses[5] 	95831
scalar abilene_cost_network.node[5].content_store 	decision_yes[5] 	9539
scalar abilene_cost_network.node[5].content_store 	decision_no[5] 	86292
scalar abilene_cost_network.node[5].content_store 	decision_ratio[5] 	0.099539814882449
scalar abilene_cost_network.node[6].core_layer 	interests[6] 	78171
scalar abilene_cost_network.node[6].core_layer 	data[6] 	68050
scalar abilene_cost_network.node[6].content_store 	p_hit[6] 	0.12947256655281
scalar abilene_cost_network.node[6].content_store 	hits[6] 	10121
scalar abilene_cost_network.node[6].content_store 	misses[6] 	68050
scalar abilene_cost_network.node[6].content_store 	decision_yes[6] 	6822
scalar abilene_cost_network.node[6].content_store 	decision_no[6] 	61228
scalar abilene_cost_network.node[6].content_store 	decision_ratio[6] 	0.10024981631154
scalar abilene_cost_network.node[7].core_layer 	interests[7] 	296948
scalar abilene_cost_network.node[7].core_layer 	repo_load[7] 	110853
scalar abilene_cost_network.node[7].core_layer 	data[7] 	120884
scalar abilene_cost_network.node[7].content_store 	p_hit[7] 	0.21936837426081
scalar abilene_cost_network.node[7].content_store 	hits[7] 	65141
scalar abilene_cost_network.node[7].content_store 	misses[7] 	231807
scalar abilene_cost_network.node[7].content_store 	decision_yes[7] 	23329
scalar abilene_cost_network.node[7].content_store 	decision_no[7] 	208408
scalar abilene_cost_network.node[7].content_store 	decision_ratio[7] 	0.10067015625472
scalar abilene_cost_network.node[8].core_layer 	interests[8] 	222308
scalar abilene_cost_network.node[8].core_layer 	data[8] 	157450
scalar abilene_cost_network.node[8].content_store 	p_hit[8] 	0.29131205354733
scalar abilene_cost_network.node[8].content_store 	hits[8] 	64761
scalar abilene_cost_network.node[8].content_store 	misses[8] 	157547
scalar abilene_cost_network.node[8].content_store 	decision_yes[8] 	15723
scalar abilene_cost_network.node[8].content_store 	decision_no[8] 	141727
scalar abilene_cost_network.node[8].content_store 	decision_ratio[8] 	0.099860273102572
scalar abilene_cost_network.node[9].core_layer 	interests[9] 	75862
scalar abilene_cost_network.node[9].core_layer 	data[9] 	67053
scalar abilene_cost_network.node[9].content_store 	p_hit[9] 	0.11611874192613
scalar abilene_cost_network.node[9].content_store 	hits[9] 	8809
scalar abilene_cost_network.node[9].content_store 	misses[9] 	67053
scalar abilene_cost_network.node[9].content_store 	decision_yes[9] 	6707
scalar abilene_cost_network.node[9].content_store 	decision_no[9] 	60346
scalar abilene_cost_network.node[9].content_store 	decision_ratio[9] 	0.10002535307891
scalar abilene_cost_network.node[10].core_layer 	interests[10] 	100943
scalar abilene_cost_network.node[10].core_layer 	repo_load[10] 	94701
scalar abilene_cost_network.node[10].core_layer 	data[10] 	0
scalar abilene_cost_network.node[10].content_store 	p_hit[10] 	0.061836878238214
scalar abilene_cost_network.node[10].content_store 	hits[10] 	6242
scalar abilene_cost_network.node[10].content_store 	misses[10] 	94701
scalar abilene_cost_network.node[10].content_store 	decision_yes[10] 	9515
scalar abilene_cost_network.node[10].content_store 	decision_no[10] 	85186
scalar abilene_cost_network.node[10].content_store 	decision_ratio[10] 	0.10047412382129
scalar abilene_cost_network.client[2] 	hdistance[2] 	1.9720506861443
scalar abilene_cost_network.client[2] 	downloads[2] 	180720
scalar abilene_cost_network.client[2] 	avg_time[2] 	0.008009758191
scalar abilene_cost_network.client[7] 	hdistance[7] 	1.6259661950168
scalar abilene_cost_network.client[7] 	downloads[7] 	179441
scalar abilene_cost_network.client[7] 	avg_time[7] 	0.007237951967
scalar abilene_cost_network.client[8] 	hdistance[8] 	1.8132944177705
scalar abilene_cost_network.client[8] 	downloads[8] 	179534
scalar abilene_cost_network.client[8] 	avg_time[8] 	0.008830459116
