version 2
run General-4-20150720-15:47:44-14999
attr C 1e6
attr D lce
attr F spr
attr R always_highq
attr a 1
attr brates 0.3_0.7_1.5_2.5_3.5
attr configname General
attr ctlg 1e8
attr datetime 20150720-15:47:44
attr experiment General
attr inifile omnetpp.ini
attr iterationvars "$net=abilene_nodelay, $rep=0, $lambda=100, $a=1, $ctlg=1e8, $brates=0.3_0.7_1.5_2.5_3.5, $F=spr, $ttl=1000, $D=lce, $R=always_highq, $C=1e6, $window=60, $variance=0.05, $mytime=3600"
attr iterationvars2 "$net=abilene_nodelay, $rep=0, $lambda=100, $a=1, $ctlg=1e8, $brates=0.3_0.7_1.5_2.5_3.5, $F=spr, $ttl=1000, $D=lce, $R=always_highq, $C=1e6, $window=60, $variance=0.05, $mytime=3600, $repetition=0"
attr lambda 100
attr measurement "$net=abilene_nodelay, $rep=0, $lambda=100, $a=1, $ctlg=1e8, $brates=0.3_0.7_1.5_2.5_3.5, $F=spr, $ttl=1000, $D=lce, $R=always_highq, $C=1e6, $window=60, $variance=0.05, $mytime=3600"
attr mytime 3600
attr net abilene_nodelay
attr network networks.${net=abilene_nodelay}_network
attr processid 14999
attr rep 0
attr repetition 0
attr replication #0
attr resultdir results
attr runnumber 4
attr seedset 0
attr ttl 1000
attr variance 0.05
attr window 60

scalar . 	C 	1e6
scalar . 	a 	1
scalar . 	ctlg 	1e8
scalar . 	lambda 	100
scalar . 	mytime 	3600
scalar . 	rep 	0
scalar . 	ttl 	1000
scalar . 	variance 	0.05
scalar . 	window 	60
scalar abilene_nodelay_network.content_distribution 	repo-0 	5
scalar abilene_nodelay_network.content_distribution 	repo-1 	8
scalar abilene_nodelay_network.content_distribution 	repo-2 	9
scalar abilene_nodelay_network.content_distribution 	repo-3 	0
scalar abilene_nodelay_network.content_distribution 	repo-4 	1
scalar abilene_nodelay_network.content_distribution 	repo-5 	7
scalar abilene_nodelay_network.content_distribution 	repo-6 	6
scalar abilene_nodelay_network.content_distribution 	repo-7 	2
scalar abilene_nodelay_network.content_distribution 	repo-8 	4
scalar abilene_nodelay_network.content_distribution 	repo-9 	10
scalar abilene_nodelay_network.content_distribution 	repo-10 	3
scalar abilene_nodelay_network.content_distribution 	client-0 	10
scalar abilene_nodelay_network.content_distribution 	client-1 	9
scalar abilene_nodelay_network.content_distribution 	client-2 	8
scalar abilene_nodelay_network.content_distribution 	client-3 	7
scalar abilene_nodelay_network.content_distribution 	client-4 	3
scalar abilene_nodelay_network.content_distribution 	client-5 	6
scalar abilene_nodelay_network.content_distribution 	client-6 	5
scalar abilene_nodelay_network.content_distribution 	client-7 	1
scalar abilene_nodelay_network.content_distribution 	client-8 	4
scalar abilene_nodelay_network.content_distribution 	client-9 	0
scalar abilene_nodelay_network.content_distribution 	client-10 	2
scalar abilene_nodelay_network.content_distribution 	repo-0_card 	9095979
scalar abilene_nodelay_network.content_distribution 	repo-0_price 	0
scalar abilene_nodelay_network.content_distribution 	repo-1_card 	9088625
scalar abilene_nodelay_network.content_distribution 	repo-1_price 	0
scalar abilene_nodelay_network.content_distribution 	repo-2_card 	9091688
scalar abilene_nodelay_network.content_distribution 	repo-2_price 	0
scalar abilene_nodelay_network.content_distribution 	repo-3_card 	9088505
scalar abilene_nodelay_network.content_distribution 	repo-3_price 	0
scalar abilene_nodelay_network.content_distribution 	repo-4_card 	9088374
scalar abilene_nodelay_network.content_distribution 	repo-4_price 	0
scalar abilene_nodelay_network.content_distribution 	repo-5_card 	9091947
scalar abilene_nodelay_network.content_distribution 	repo-5_price 	0
scalar abilene_nodelay_network.content_distribution 	repo-6_card 	9088127
scalar abilene_nodelay_network.content_distribution 	repo-6_price 	0
scalar abilene_nodelay_network.content_distribution 	repo-7_card 	9091123
scalar abilene_nodelay_network.content_distribution 	repo-7_price 	0
scalar abilene_nodelay_network.content_distribution 	repo-8_card 	9090920
scalar abilene_nodelay_network.content_distribution 	repo-8_price 	0
scalar abilene_nodelay_network.content_distribution 	repo-9_card 	9093199
scalar abilene_nodelay_network.content_distribution 	repo-9_price 	0
scalar abilene_nodelay_network.content_distribution 	repo-10_card 	9091513
scalar abilene_nodelay_network.content_distribution 	repo-10_price 	0
scalar abilene_nodelay_network.statistics 	stabilization_time 	30558.2
scalar abilene_nodelay_network.statistics 	p_hit 	0.19272804638813
scalar abilene_nodelay_network.statistics 	interests 	1193424.4545455
scalar abilene_nodelay_network.statistics 	data 	477426.36363636
scalar abilene_nodelay_network.statistics 	hdistance 	1.0599040528275
scalar abilene_nodelay_network.statistics 	avg_time 	0
scalar abilene_nodelay_network.statistics 	downloads 	3960824
scalar abilene_nodelay_network.statistics 	total_cost 	0
scalar abilene_nodelay_network.statistics 	total_replicas 	100000000
scalar abilene_nodelay_network.statistics 	"representations_downloaded 0.361226:0:0:0:0.638774:" 	0
scalar abilene_nodelay_network.statistics 	"slots_per_representation 100:233:500:833:1167:" 	0
scalar abilene_nodelay_network.statistics 	inner_hit 	0.0071608836949079
scalar abilene_nodelay_network.statistics 	execution_time 	2765
scalar abilene_nodelay_network.node[0].core_layer 	interests[0] 	759846
scalar abilene_nodelay_network.node[0].core_layer 	repo_load[0] 	335365
scalar abilene_nodelay_network.node[0].core_layer 	data[0] 	206829
scalar abilene_nodelay_network.node[0].core_layer 	slots_sent[face$o[1]->client[0]] 	291038635
scalar abilene_nodelay_network.node[0].core_layer 	slots_sent[face$o[2]->node[1]] 	91449526
scalar abilene_nodelay_network.node[0].core_layer 	slots_sent[face$o[3]->node[10]] 	26147079
scalar abilene_nodelay_network.node[0].content_store 	p_hit[0] 	0.28644225277227
scalar abilene_nodelay_network.node[0].content_store 	hits[0] 	217652
scalar abilene_nodelay_network.node[0].content_store 	misses[0] 	542194
scalar abilene_nodelay_network.node[0].content_store 	decision_yes[0] 	114091
scalar abilene_nodelay_network.node[0].content_store 	decision_no[0] 	428103
scalar abilene_nodelay_network.node[0].content_store 	decision_ratio[0] 	0.21042468194041
scalar abilene_nodelay_network.node[0].proactive_component 	hdistance[0].proactive_component 	2.2750696336372
scalar abilene_nodelay_network.node[0].proactive_component 	downloads[0].proactive_component 	2132231
scalar abilene_nodelay_network.node[0].proactive_component 	avg_time[0].proactive_component 	0
scalar abilene_nodelay_network.node[1].core_layer 	interests[1] 	1431492
scalar abilene_nodelay_network.node[1].core_layer 	repo_load[1] 	375551
scalar abilene_nodelay_network.node[1].core_layer 	data[1] 	625375
scalar abilene_nodelay_network.node[1].core_layer 	slots_sent[face$o[1]->client[1]] 	273436870
scalar abilene_nodelay_network.node[1].core_layer 	slots_sent[face$o[2]->node[0]] 	113963609
scalar abilene_nodelay_network.node[1].core_layer 	slots_sent[face$o[3]->node[10]] 	84147569
scalar abilene_nodelay_network.node[1].core_layer 	slots_sent[face$o[4]->node[2]] 	225870482
scalar abilene_nodelay_network.node[1].content_store 	p_hit[1] 	0.16300405451096
scalar abilene_nodelay_network.node[1].content_store 	hits[1] 	233339
scalar abilene_nodelay_network.node[1].content_store 	misses[1] 	1198153
scalar abilene_nodelay_network.node[1].content_store 	decision_yes[1] 	327201
scalar abilene_nodelay_network.node[1].content_store 	decision_no[1] 	673725
scalar abilene_nodelay_network.node[1].content_store 	decision_ratio[1] 	0.32689829218144
scalar abilene_nodelay_network.node[1].proactive_component 	hdistance[1].proactive_component 	2.3341759820857
scalar abilene_nodelay_network.node[1].proactive_component 	downloads[1].proactive_component 	4288857
scalar abilene_nodelay_network.node[1].proactive_component 	avg_time[1].proactive_component 	0
scalar abilene_nodelay_network.node[2].core_layer 	interests[2] 	1921888
scalar abilene_nodelay_network.node[2].core_layer 	repo_load[2] 	388920
scalar abilene_nodelay_network.node[2].core_layer 	data[2] 	943082
scalar abilene_nodelay_network.node[2].core_layer 	slots_sent[face$o[1]->client[2]] 	269326509
scalar abilene_nodelay_network.node[2].core_layer 	slots_sent[face$o[2]->node[1]] 	242388952
scalar abilene_nodelay_network.node[2].core_layer 	slots_sent[face$o[3]->node[3]] 	290021418
scalar abilene_nodelay_network.node[2].core_layer 	slots_sent[face$o[4]->node[8]] 	114371795
scalar abilene_nodelay_network.node[2].content_store 	p_hit[2] 	0.12552188264873
scalar abilene_nodelay_network.node[2].content_store 	hits[2] 	241239
scalar abilene_nodelay_network.node[2].content_store 	misses[2] 	1680649
scalar abilene_nodelay_network.node[2].content_store 	decision_yes[2] 	491985
scalar abilene_nodelay_network.node[2].content_store 	decision_no[2] 	840017
scalar abilene_nodelay_network.node[2].content_store 	decision_ratio[2] 	0.36935755351719
scalar abilene_nodelay_network.node[2].proactive_component 	hdistance[2].proactive_component 	2.3258544622991
scalar abilene_nodelay_network.node[2].proactive_component 	downloads[2].proactive_component 	5844465
scalar abilene_nodelay_network.node[2].proactive_component 	avg_time[2].proactive_component 	0
scalar abilene_nodelay_network.node[3].core_layer 	interests[3] 	1785880
scalar abilene_nodelay_network.node[3].core_layer 	repo_load[3] 	367745
scalar abilene_nodelay_network.node[3].core_layer 	data[3] 	863158
scalar abilene_nodelay_network.node[3].core_layer 	slots_sent[face$o[1]->client[3]] 	280331351
scalar abilene_nodelay_network.node[3].core_layer 	slots_sent[face$o[2]->node[2]] 	285275751
scalar abilene_nodelay_network.node[3].core_layer 	slots_sent[face$o[3]->node[4]] 	176074983
scalar abilene_nodelay_network.node[3].core_layer 	slots_sent[face$o[4]->node[7]] 	127519187
scalar abilene_nodelay_network.node[3].content_store 	p_hit[3] 	0.13754115618071
scalar abilene_nodelay_network.node[3].content_store 	hits[3] 	245632
scalar abilene_nodelay_network.node[3].content_store 	misses[3] 	1540248
scalar abilene_nodelay_network.node[3].content_store 	decision_yes[3] 	451671
scalar abilene_nodelay_network.node[3].content_store 	decision_no[3] 	779232
scalar abilene_nodelay_network.node[3].content_store 	decision_ratio[3] 	0.36694280540384
scalar abilene_nodelay_network.node[3].proactive_component 	hdistance[3].proactive_component 	2.3598223087726
scalar abilene_nodelay_network.node[3].proactive_component 	downloads[3].proactive_component 	5356933
scalar abilene_nodelay_network.node[3].proactive_component 	avg_time[3].proactive_component 	0
scalar abilene_nodelay_network.node[4].core_layer 	interests[4] 	1056441
scalar abilene_nodelay_network.node[4].core_layer 	repo_load[4] 	346176
scalar abilene_nodelay_network.node[4].core_layer 	data[4] 	387584
scalar abilene_nodelay_network.node[4].core_layer 	slots_sent[face$o[1]->client[4]] 	288310136
scalar abilene_nodelay_network.node[4].core_layer 	slots_sent[face$o[2]->node[3]] 	159381341
scalar abilene_nodelay_network.node[4].core_layer 	slots_sent[face$o[3]->node[5]] 	97858262
scalar abilene_nodelay_network.node[4].content_store 	p_hit[4] 	0.22285484944261
scalar abilene_nodelay_network.node[4].content_store 	hits[4] 	235433
scalar abilene_nodelay_network.node[4].content_store 	misses[4] 	821008
scalar abilene_nodelay_network.node[4].content_store 	decision_yes[4] 	204913
scalar abilene_nodelay_network.node[4].content_store 	decision_no[4] 	528847
scalar abilene_nodelay_network.node[4].content_store 	decision_ratio[4] 	0.27926433711295
scalar abilene_nodelay_network.node[4].proactive_component 	hdistance[4].proactive_component 	2.3381653308134
scalar abilene_nodelay_network.node[4].proactive_component 	downloads[4].proactive_component 	3056224
scalar abilene_nodelay_network.node[4].proactive_component 	avg_time[4].proactive_component 	0
scalar abilene_nodelay_network.node[5].core_layer 	interests[5] 	830842
scalar abilene_nodelay_network.node[5].core_layer 	repo_load[5] 	362077
scalar abilene_nodelay_network.node[5].core_layer 	data[5] 	246077
scalar abilene_nodelay_network.node[5].core_layer 	slots_sent[face$o[1]->client[5]] 	270392837
scalar abilene_nodelay_network.node[5].core_layer 	slots_sent[face$o[2]->node[4]] 	81325588
scalar abilene_nodelay_network.node[5].core_layer 	slots_sent[face$o[3]->node[6]] 	61668507
scalar abilene_nodelay_network.node[5].content_store 	p_hit[5] 	0.24449293608171
scalar abilene_nodelay_network.node[5].content_store 	hits[5] 	203135
scalar abilene_nodelay_network.node[5].content_store 	misses[5] 	627707
scalar abilene_nodelay_network.node[5].content_store 	decision_yes[5] 	133383
scalar abilene_nodelay_network.node[5].content_store 	decision_no[5] 	474771
scalar abilene_nodelay_network.node[5].content_store 	decision_ratio[5] 	0.21932438165333
scalar abilene_nodelay_network.node[5].proactive_component 	hdistance[5].proactive_component 	2.1730154640104
scalar abilene_nodelay_network.node[5].proactive_component 	downloads[5].proactive_component 	2495407
scalar abilene_nodelay_network.node[5].proactive_component 	avg_time[5].proactive_component 	0
scalar abilene_nodelay_network.node[6].core_layer 	interests[6] 	932717
scalar abilene_nodelay_network.node[6].core_layer 	repo_load[6] 	331222
scalar abilene_nodelay_network.node[6].core_layer 	data[6] 	319165
scalar abilene_nodelay_network.node[6].core_layer 	slots_sent[face$o[1]->client[6]] 	287737562
scalar abilene_nodelay_network.node[6].core_layer 	slots_sent[face$o[2]->node[5]] 	69069099
scalar abilene_nodelay_network.node[6].core_layer 	slots_sent[face$o[3]->node[7]] 	128567800
scalar abilene_nodelay_network.node[6].content_store 	p_hit[6] 	0.24431526390105
scalar abilene_nodelay_network.node[6].content_store 	hits[6] 	227877
scalar abilene_nodelay_network.node[6].content_store 	misses[6] 	704840
scalar abilene_nodelay_network.node[6].content_store 	decision_yes[6] 	169345
scalar abilene_nodelay_network.node[6].content_store 	decision_no[6] 	481042
scalar abilene_nodelay_network.node[6].content_store 	decision_ratio[6] 	0.26037574551767
scalar abilene_nodelay_network.node[6].proactive_component 	hdistance[6].proactive_component 	2.2333077225024
scalar abilene_nodelay_network.node[6].proactive_component 	downloads[6].proactive_component 	2687665
scalar abilene_nodelay_network.node[6].proactive_component 	avg_time[6].proactive_component 	0
scalar abilene_nodelay_network.node[7].core_layer 	interests[7] 	1311657
scalar abilene_nodelay_network.node[7].core_layer 	repo_load[7] 	363211
scalar abilene_nodelay_network.node[7].core_layer 	data[7] 	546015
scalar abilene_nodelay_network.node[7].core_layer 	slots_sent[face$o[1]->client[7]] 	286266308
scalar abilene_nodelay_network.node[7].core_layer 	slots_sent[face$o[2]->node[3]] 	118845998
scalar abilene_nodelay_network.node[7].core_layer 	slots_sent[face$o[3]->node[6]] 	150939108
scalar abilene_nodelay_network.node[7].core_layer 	slots_sent[face$o[4]->node[8]] 	104596431
scalar abilene_nodelay_network.node[7].content_store 	p_hit[7] 	0.18441330317301
scalar abilene_nodelay_network.node[7].content_store 	hits[7] 	241887
scalar abilene_nodelay_network.node[7].content_store 	misses[7] 	1069770
scalar abilene_nodelay_network.node[7].content_store 	decision_yes[7] 	286585
scalar abilene_nodelay_network.node[7].content_store 	decision_no[7] 	622641
scalar abilene_nodelay_network.node[7].content_store 	decision_ratio[7] 	0.31519666177606
scalar abilene_nodelay_network.node[7].proactive_component 	hdistance[7].proactive_component 	2.2074336533188
scalar abilene_nodelay_network.node[7].proactive_component 	downloads[7].proactive_component 	3851323
scalar abilene_nodelay_network.node[7].proactive_component 	avg_time[7].proactive_component 	0
scalar abilene_nodelay_network.node[8].core_layer 	interests[8] 	1254185
scalar abilene_nodelay_network.node[8].core_layer 	repo_load[8] 	360527
scalar abilene_nodelay_network.node[8].core_layer 	data[8] 	510241
scalar abilene_nodelay_network.node[8].core_layer 	slots_sent[face$o[1]->client[8]] 	287215684
scalar abilene_nodelay_network.node[8].core_layer 	slots_sent[face$o[2]->node[2]] 	108109962
scalar abilene_nodelay_network.node[8].core_layer 	slots_sent[face$o[3]->node[7]] 	104300708
scalar abilene_nodelay_network.node[8].core_layer 	slots_sent[face$o[4]->node[9]] 	135845869
scalar abilene_nodelay_network.node[8].content_store 	p_hit[8] 	0.19149487515797
scalar abilene_nodelay_network.node[8].content_store 	hits[8] 	240170
scalar abilene_nodelay_network.node[8].content_store 	misses[8] 	1014015
scalar abilene_nodelay_network.node[8].content_store 	decision_yes[8] 	268282
scalar abilene_nodelay_network.node[8].content_store 	decision_no[8] 	602486
scalar abilene_nodelay_network.node[8].content_store 	decision_ratio[8] 	0.30809813865461
scalar abilene_nodelay_network.node[8].proactive_component 	hdistance[8].proactive_component 	2.1244936648438
scalar abilene_nodelay_network.node[8].proactive_component 	downloads[8].proactive_component 	3666050
scalar abilene_nodelay_network.node[8].proactive_component 	avg_time[8].proactive_component 	0
scalar abilene_nodelay_network.node[9].core_layer 	interests[9] 	934710
scalar abilene_nodelay_network.node[9].core_layer 	repo_load[9] 	336529
scalar abilene_nodelay_network.node[9].core_layer 	data[9] 	318566
scalar abilene_nodelay_network.node[9].core_layer 	slots_sent[face$o[1]->client[9]] 	282962463
scalar abilene_nodelay_network.node[9].core_layer 	slots_sent[face$o[2]->node[10]] 	79901781
scalar abilene_nodelay_network.node[9].core_layer 	slots_sent[face$o[3]->node[8]] 	118312768
scalar abilene_nodelay_network.node[9].content_store 	p_hit[9] 	0.24061366627082
scalar abilene_nodelay_network.node[9].content_store 	hits[9] 	224904
scalar abilene_nodelay_network.node[9].content_store 	misses[9] 	709806
scalar abilene_nodelay_network.node[9].content_store 	decision_yes[9] 	168346
scalar abilene_nodelay_network.node[9].content_store 	decision_no[9] 	486749
scalar abilene_nodelay_network.node[9].content_store 	decision_ratio[9] 	0.25697952205405
scalar abilene_nodelay_network.node[9].proactive_component 	hdistance[9].proactive_component 	2.1255780875226
scalar abilene_nodelay_network.node[9].proactive_component 	downloads[9].proactive_component 	2732069
scalar abilene_nodelay_network.node[9].proactive_component 	avg_time[9].proactive_component 	0
scalar abilene_nodelay_network.node[10].core_layer 	interests[10] 	908011
scalar abilene_nodelay_network.node[10].core_layer 	repo_load[10] 	365138
scalar abilene_nodelay_network.node[10].core_layer 	data[10] 	285598
scalar abilene_nodelay_network.node[10].core_layer 	slots_sent[face$o[1]->client[10]] 	278648735
scalar abilene_nodelay_network.node[10].core_layer 	slots_sent[face$o[2]->node[0]] 	28454388
scalar abilene_nodelay_network.node[10].core_layer 	slots_sent[face$o[3]->node[1]] 	77822489
scalar abilene_nodelay_network.node[10].core_layer 	slots_sent[face$o[4]->node[9]] 	75635913
scalar abilene_nodelay_network.node[10].content_store 	p_hit[10] 	0.2409684464175
scalar abilene_nodelay_network.node[10].content_store 	hits[10] 	218802
scalar abilene_nodelay_network.node[10].content_store 	misses[10] 	689209
scalar abilene_nodelay_network.node[10].content_store 	decision_yes[10] 	151487
scalar abilene_nodelay_network.node[10].content_store 	decision_no[10] 	499249
scalar abilene_nodelay_network.node[10].content_store 	decision_ratio[10] 	0.23279332939933
scalar abilene_nodelay_network.node[10].proactive_component 	hdistance[10].proactive_component 	2.0421200238226
scalar abilene_nodelay_network.node[10].proactive_component 	downloads[10].proactive_component 	2666404
scalar abilene_nodelay_network.node[10].proactive_component 	avg_time[10].proactive_component 	0
scalar abilene_nodelay_network.client[0] 	hdistance[0].real 	1.1631163538338
scalar abilene_nodelay_network.client[0] 	downloads[0].real 	360203
scalar abilene_nodelay_network.client[0] 	avg_time[0].real 	0
scalar abilene_nodelay_network.client[1] 	hdistance[1].real 	1.077118274674
scalar abilene_nodelay_network.client[1] 	downloads[1].real 	360187
scalar abilene_nodelay_network.client[1] 	avg_time[1].real 	0
scalar abilene_nodelay_network.client[2] 	hdistance[2].real 	0.97442270085849
scalar abilene_nodelay_network.client[2] 	downloads[2].real 	360515
scalar abilene_nodelay_network.client[2] 	avg_time[2].real 	0
scalar abilene_nodelay_network.client[3] 	hdistance[3].real 	0.97823161341343
scalar abilene_nodelay_network.client[3] 	downloads[3].real 	360385
scalar abilene_nodelay_network.client[3] 	avg_time[3].real 	0
scalar abilene_nodelay_network.client[4] 	hdistance[4].real 	1.0888311501048
scalar abilene_nodelay_network.client[4] 	downloads[4].real 	360628
scalar abilene_nodelay_network.client[4] 	avg_time[4].real 	0
scalar abilene_nodelay_network.client[5] 	hdistance[5].real 	1.2187941448005
scalar abilene_nodelay_network.client[5] 	downloads[5].real 	359612
scalar abilene_nodelay_network.client[5] 	avg_time[5].real 	0
scalar abilene_nodelay_network.client[6] 	hdistance[6].real 	1.1129630040613
scalar abilene_nodelay_network.client[6] 	downloads[6].real 	360472
scalar abilene_nodelay_network.client[6] 	avg_time[6].real 	0
scalar abilene_nodelay_network.client[7] 	hdistance[7].real 	0.96438166820246
scalar abilene_nodelay_network.client[7] 	downloads[7].real 	360292
scalar abilene_nodelay_network.client[7] 	avg_time[7].real 	0
scalar abilene_nodelay_network.client[8] 	hdistance[8].real 	0.93571817585667
scalar abilene_nodelay_network.client[8] 	downloads[8].real 	359884
scalar abilene_nodelay_network.client[8] 	avg_time[8].real 	0
scalar abilene_nodelay_network.client[9] 	hdistance[9].real 	1.0394065315002
scalar abilene_nodelay_network.client[9] 	downloads[9].real 	358570
scalar abilene_nodelay_network.client[9] 	avg_time[9].real 	0
scalar abilene_nodelay_network.client[10] 	hdistance[10].real 	1.1059609637966
scalar abilene_nodelay_network.client[10] 	downloads[10].real 	360076
scalar abilene_nodelay_network.client[10] 	avg_time[10].real 	0
