version 2
run General-71-20150313-18:09:53-21641
attr D fix0.01
attr F nrr
attr R lru
attr a 1
attr configname General
attr csize 1e3
attr ctlg 1e5
attr datetime 20150313-18:09:53
attr experiment General
attr inifile omnetpp.ini
attr iterationvars "$rep=25, $net=cost_scenario, $lambda=100, $a=1, $ctlg=1e5, $F=nrr, $ttl=10, $D=fix0.01, $R=lru, $csize=1e3, $window=60, $variance=0.05, $mytime=1800, $kappa=1, $priceratiovalue=2, $splits=0.333_0.333_0.334, $pricebits=0"
attr iterationvars2 "$rep=25, $net=cost_scenario, $lambda=100, $a=1, $ctlg=1e5, $F=nrr, $ttl=10, $D=fix0.01, $R=lru, $csize=1e3, $window=60, $variance=0.05, $mytime=1800, $kappa=1, $priceratiovalue=2, $splits=0.333_0.333_0.334, $pricebits=0, $repetition=0"
attr kappa 1
attr lambda 100
attr measurement "$rep=25, $net=cost_scenario, $lambda=100, $a=1, $ctlg=1e5, $F=nrr, $ttl=10, $D=fix0.01, $R=lru, $csize=1e3, $window=60, $variance=0.05, $mytime=1800, $kappa=1, $priceratiovalue=2, $splits=0.333_0.333_0.334, $pricebits=0"
attr mytime 1800
attr net cost_scenario
attr network networks.${net=cost_scenario}_network
attr pricebits 0
attr priceratiovalue 2
attr processid 21641
attr rep 25
attr repetition 0
attr replication #0
attr resultdir results
attr runnumber 71
attr seedset 25
attr splits 0.333_0.333_0.334
attr ttl 10
attr variance 0.05
attr window 60

scalar . 	a 	1
scalar . 	csize 	1e3
scalar . 	ctlg 	1e5
scalar . 	kappa 	1
scalar . 	lambda 	100
scalar . 	mytime 	1800
scalar . 	pricebits 	0
scalar . 	priceratiovalue 	2
scalar . 	rep 	25
scalar . 	ttl 	10
scalar . 	variance 	0.05
scalar . 	window 	60
scalar cost_scenario_network.content_distribution 	repo-0 	1
scalar cost_scenario_network.content_distribution 	repo-1 	2
scalar cost_scenario_network.content_distribution 	repo-2 	3
scalar cost_scenario_network.content_distribution 	client-0 	0
scalar cost_scenario_network.content_distribution 	repo-0_card 	33298
scalar cost_scenario_network.content_distribution 	repo-0_price 	0
scalar cost_scenario_network.content_distribution 	repo-1_card 	33097
scalar cost_scenario_network.content_distribution 	repo-1_price 	1
scalar cost_scenario_network.content_distribution 	repo-2_card 	33605
scalar cost_scenario_network.content_distribution 	repo-2_price 	2
scalar cost_scenario_network.statistics 	repo_popularity[0] 	0.3749016271329
scalar cost_scenario_network.statistics 	repo_popularity[1] 	0.30062071766207
scalar cost_scenario_network.statistics 	repo_popularity[2] 	0.32447765520504
scalar cost_scenario_network.statistics 	stabilization_time 	1888.2
scalar cost_scenario_network.statistics 	p_hit 	0.368346117974
scalar cost_scenario_network.statistics 	interests 	65671.25
scalar cost_scenario_network.statistics 	data 	20740.75
scalar cost_scenario_network.statistics 	hdistance 	0.92323699936568
scalar cost_scenario_network.statistics 	avg_time 	0
scalar cost_scenario_network.statistics 	downloads 	179722
scalar cost_scenario_network.statistics 	total_cost 	81914
scalar cost_scenario_network.statistics 	total_replicas 	100000
scalar cost_scenario_network.statistics 	inner_hit 	0.53838150031716
scalar cost_scenario_network.statistics 	interests_sent 	179722
scalar cost_scenario_network.node[0].core_layer 	interests[0] 	179722
scalar cost_scenario_network.node[0].core_layer 	data[0] 	82963
scalar cost_scenario_network.node[0].core_layer 	repo_int[0] 	82963
scalar cost_scenario_network.node[0].content_store 	p_hit[0] 	0.53838150031716
scalar cost_scenario_network.node[0].content_store 	hits[0] 	96759
scalar cost_scenario_network.node[0].content_store 	misses[0] 	82963
scalar cost_scenario_network.node[0].content_store 	decision_yes[0] 	834
scalar cost_scenario_network.node[0].content_store 	decision_no[0] 	82129
scalar cost_scenario_network.node[0].content_store 	decision_ratio[0] 	0.010052674083628
scalar cost_scenario_network.node[0].content_store 	cache_value[0] 	6.2089664129832
scalar cost_scenario_network.node[0].content_store 	average_price_of_cache[0] 	0.974
scalar cost_scenario_network.node[1].core_layer 	interests[1] 	28312
scalar cost_scenario_network.node[1].core_layer 	repo_load[1] 	28312
scalar cost_scenario_network.node[1].core_layer 	data[1] 	0
scalar cost_scenario_network.node[1].content_store 	p_hit[1] 	0
scalar cost_scenario_network.node[1].content_store 	hits[1] 	0
scalar cost_scenario_network.node[1].content_store 	misses[1] 	28312
scalar cost_scenario_network.node[1].content_store 	decision_yes[1] 	0
scalar cost_scenario_network.node[1].content_store 	decision_no[1] 	28312
scalar cost_scenario_network.node[1].content_store 	decision_ratio[1] 	0
scalar cost_scenario_network.node[1].content_store 	cache_value[1] 	2.1199961610531e-316
scalar cost_scenario_network.node[1].content_store 	average_price_of_cache[1] 	-nan
scalar cost_scenario_network.node[2].core_layer 	interests[2] 	27388
scalar cost_scenario_network.node[2].core_layer 	repo_load[2] 	27388
scalar cost_scenario_network.node[2].core_layer 	data[2] 	0
scalar cost_scenario_network.node[2].content_store 	p_hit[2] 	0
scalar cost_scenario_network.node[2].content_store 	hits[2] 	0
scalar cost_scenario_network.node[2].content_store 	misses[2] 	27388
scalar cost_scenario_network.node[2].content_store 	decision_yes[2] 	0
scalar cost_scenario_network.node[2].content_store 	decision_no[2] 	27388
scalar cost_scenario_network.node[2].content_store 	decision_ratio[2] 	0
scalar cost_scenario_network.node[2].content_store 	cache_value[2] 	2.1201550525648e-316
scalar cost_scenario_network.node[2].content_store 	average_price_of_cache[2] 	-nan
scalar cost_scenario_network.node[3].core_layer 	interests[3] 	27263
scalar cost_scenario_network.node[3].core_layer 	repo_load[3] 	27263
scalar cost_scenario_network.node[3].core_layer 	data[3] 	0
scalar cost_scenario_network.node[3].content_store 	p_hit[3] 	0
scalar cost_scenario_network.node[3].content_store 	hits[3] 	0
scalar cost_scenario_network.node[3].content_store 	misses[3] 	27263
scalar cost_scenario_network.node[3].content_store 	decision_yes[3] 	0
scalar cost_scenario_network.node[3].content_store 	decision_no[3] 	27263
scalar cost_scenario_network.node[3].content_store 	decision_ratio[3] 	0
scalar cost_scenario_network.node[3].content_store 	cache_value[3] 	2.1203139440765e-316
scalar cost_scenario_network.node[3].content_store 	average_price_of_cache[3] 	-nan
scalar cost_scenario_network.client[0] 	hdistance[0] 	0.92323699936568
scalar cost_scenario_network.client[0] 	downloads[0] 	179722
scalar cost_scenario_network.client[0] 	avg_time[0] 	0
scalar cost_scenario_network.client[0] 	interests_sent[0] 	179722
