version 2
run General-9-20141007-11:09:29-464
attr D fix0.001
attr F spr
attr R lru
attr a 1
attr configname General
attr csize 1e3
attr ctlg 1e5
attr datetime 20141007-11:09:29
attr experiment General
attr inifile omnetpp.ini
attr iterationvars "$net=abilene_cost, $rep=4, $priceratiovalue=10, $weights=0.333_0.333_0.334, $lambda=100, $a=1, $ctlg=1e5, $F=spr, $ttl=10, $D=fix0.001, $xi=1, $R=lru, $csize=1e3, $pricebits=0, $window=60, $variance=0.05, $mytime=1800"
attr iterationvars2 "$net=abilene_cost, $rep=4, $priceratiovalue=10, $weights=0.333_0.333_0.334, $lambda=100, $a=1, $ctlg=1e5, $F=spr, $ttl=10, $D=fix0.001, $xi=1, $R=lru, $csize=1e3, $pricebits=0, $window=60, $variance=0.05, $mytime=1800, $repetition=0"
attr lambda 100
attr measurement "$net=abilene_cost, $rep=4, $priceratiovalue=10, $weights=0.333_0.333_0.334, $lambda=100, $a=1, $ctlg=1e5, $F=spr, $ttl=10, $D=fix0.001, $xi=1, $R=lru, $csize=1e3, $pricebits=0, $window=60, $variance=0.05, $mytime=1800"
attr mytime 1800
attr net abilene_cost
attr network networks.${net=abilene_cost,geant_cost}_network
attr pricebits 0
attr priceratiovalue 10
attr processid 464
attr rep 4
attr repetition 0
attr replication #0
attr resultdir results
attr runnumber 9
attr seedset 4
attr ttl 10
attr variance 0.05
attr weights 0.333_0.333_0.334
attr window 60
attr xi 1

scalar . 	a 	1
scalar . 	csize 	1e3
scalar . 	ctlg 	1e5
scalar . 	lambda 	100
scalar . 	mytime 	1800
scalar . 	pricebits 	0
scalar . 	priceratiovalue 	10
scalar . 	rep 	4
scalar . 	ttl 	10
scalar . 	variance 	0.05
scalar . 	window 	60
scalar . 	xi 	1
scalar abilene_cost_network.content_distribution 	repo-0 	2
scalar abilene_cost_network.content_distribution 	repo-1 	0
scalar abilene_cost_network.content_distribution 	repo-2 	10
scalar abilene_cost_network.content_distribution 	client-0 	6
scalar abilene_cost_network.content_distribution 	client-1 	2
scalar abilene_cost_network.content_distribution 	client-2 	4
scalar abilene_cost_network.content_distribution 	repo-0_card 	33274
scalar abilene_cost_network.content_distribution 	repo-0_price 	0
scalar abilene_cost_network.content_distribution 	repo-1_card 	33153
scalar abilene_cost_network.content_distribution 	repo-1_price 	1
scalar abilene_cost_network.content_distribution 	repo-2_card 	33573
scalar abilene_cost_network.content_distribution 	repo-2_price 	10
scalar abilene_cost_network.statistics 	repo_popularity[0] 	0.33945880017902
scalar abilene_cost_network.statistics 	repo_popularity[1] 	0.30988277584688
scalar abilene_cost_network.statistics 	repo_popularity[2] 	0.35065842397411
scalar abilene_cost_network.statistics 	stabilization_time 	36060
scalar abilene_cost_network.statistics 	p_hit 	0.19887888076256
scalar abilene_cost_network.statistics 	interests 	125605
scalar abilene_cost_network.statistics 	data 	76514
scalar abilene_cost_network.statistics 	hdistance 	2.049781005644
scalar abilene_cost_network.statistics 	avg_time 	0.00970557917
scalar abilene_cost_network.statistics 	downloads 	539951
scalar abilene_cost_network.statistics 	total_cost 	922227
scalar abilene_cost_network.statistics 	total_replicas 	100000
scalar abilene_cost_network.statistics 	inner_hit 	0.50896470235262
scalar abilene_cost_network.node[0].core_layer 	interests[0] 	87889
scalar abilene_cost_network.node[0].core_layer 	repo_load[0] 	81557
scalar abilene_cost_network.node[0].core_layer 	data[0] 	0
scalar abilene_cost_network.node[0].core_layer 	repo_int[0] 	265135
scalar abilene_cost_network.node[0].content_store 	p_hit[0] 	0.072045420928671
scalar abilene_cost_network.node[0].content_store 	hits[0] 	6332
scalar abilene_cost_network.node[0].content_store 	misses[0] 	81557
scalar abilene_cost_network.node[0].content_store 	decision_yes[0] 	78
scalar abilene_cost_network.node[0].content_store 	decision_no[0] 	81479
scalar abilene_cost_network.node[0].content_store 	decision_ratio[0] 	0.00095638633103228
scalar abilene_cost_network.node[1].core_layer 	interests[1] 	164108
scalar abilene_cost_network.node[1].core_layer 	data[1] 	151727
scalar abilene_cost_network.node[1].content_store 	p_hit[1] 	0.075450313208375
scalar abilene_cost_network.node[1].content_store 	hits[1] 	12382
scalar abilene_cost_network.node[1].content_store 	misses[1] 	151726
scalar abilene_cost_network.node[1].content_store 	decision_yes[1] 	170
scalar abilene_cost_network.node[1].content_store 	decision_no[1] 	151557
scalar abilene_cost_network.node[1].content_store 	decision_ratio[1] 	0.0011204334100061
scalar abilene_cost_network.node[2].core_layer 	interests[2] 	338446
scalar abilene_cost_network.node[2].core_layer 	repo_load[2] 	99511
scalar abilene_cost_network.node[2].core_layer 	data[2] 	164109
scalar abilene_cost_network.node[2].content_store 	p_hit[2] 	0.22097173552059
scalar abilene_cost_network.node[2].content_store 	hits[2] 	74787
scalar abilene_cost_network.node[2].content_store 	misses[2] 	263659
scalar abilene_cost_network.node[2].content_store 	decision_yes[2] 	270
scalar abilene_cost_network.node[2].content_store 	decision_no[2] 	263350
scalar abilene_cost_network.node[2].content_store 	decision_ratio[2] 	0.0010242015021622
scalar abilene_cost_network.node[3].core_layer 	interests[3] 	170804
scalar abilene_cost_network.node[3].core_layer 	data[3] 	158543
scalar abilene_cost_network.node[3].content_store 	p_hit[3] 	0.071737195850214
scalar abilene_cost_network.node[3].content_store 	hits[3] 	12253
scalar abilene_cost_network.node[3].content_store 	misses[3] 	158551
scalar abilene_cost_network.node[3].content_store 	decision_yes[3] 	148
scalar abilene_cost_network.node[3].content_store 	decision_no[3] 	158395
scalar abilene_cost_network.node[3].content_store 	decision_ratio[3] 	0.00093350069066436
scalar abilene_cost_network.node[4].core_layer 	interests[4] 	180072
scalar abilene_cost_network.node[4].core_layer 	data[4] 	105542
scalar abilene_cost_network.node[4].content_store 	p_hit[4] 	0.41380114620818
scalar abilene_cost_network.node[4].content_store 	hits[4] 	74514
scalar abilene_cost_network.node[4].content_store 	misses[4] 	105558
scalar abilene_cost_network.node[4].content_store 	decision_yes[4] 	85
scalar abilene_cost_network.node[4].content_store 	decision_no[4] 	105457
scalar abilene_cost_network.node[4].content_store 	decision_ratio[4] 	0.0008053665839192
scalar abilene_cost_network.node[5].core_layer 	interests[5] 	0
scalar abilene_cost_network.node[5].core_layer 	data[5] 	0
scalar abilene_cost_network.node[5].content_store 	p_hit[5] 	-nan
scalar abilene_cost_network.node[5].content_store 	hits[5] 	0
scalar abilene_cost_network.node[5].content_store 	misses[5] 	0
scalar abilene_cost_network.node[5].content_store 	decision_yes[5] 	0
scalar abilene_cost_network.node[5].content_store 	decision_no[5] 	0
scalar abilene_cost_network.node[5].content_store 	decision_ratio[5] 	0
scalar abilene_cost_network.node[6].core_layer 	interests[6] 	180033
scalar abilene_cost_network.node[6].core_layer 	data[6] 	106087
scalar abilene_cost_network.node[6].content_store 	p_hit[6] 	0.41059139157821
scalar abilene_cost_network.node[6].content_store 	hits[6] 	73920
scalar abilene_cost_network.node[6].content_store 	misses[6] 	106113
scalar abilene_cost_network.node[6].content_store 	decision_yes[6] 	99
scalar abilene_cost_network.node[6].content_store 	decision_no[6] 	105988
scalar abilene_cost_network.node[6].content_store 	decision_ratio[6] 	0.00093319633885396
scalar abilene_cost_network.node[7].core_layer 	interests[7] 	106085
scalar abilene_cost_network.node[7].core_layer 	data[7] 	98112
scalar abilene_cost_network.node[7].content_store 	p_hit[7] 	0.075175566762502
scalar abilene_cost_network.node[7].content_store 	hits[7] 	7975
scalar abilene_cost_network.node[7].content_store 	misses[7] 	98110
scalar abilene_cost_network.node[7].content_store 	decision_yes[7] 	103
scalar abilene_cost_network.node[7].content_store 	decision_no[7] 	98009
scalar abilene_cost_network.node[7].content_store 	decision_ratio[7] 	0.0010498206131768
scalar abilene_cost_network.node[8].core_layer 	interests[8] 	32848
scalar abilene_cost_network.node[8].core_layer 	data[8] 	29954
scalar abilene_cost_network.node[8].content_store 	p_hit[8] 	0.088133219678519
scalar abilene_cost_network.node[8].content_store 	hits[8] 	2895
scalar abilene_cost_network.node[8].content_store 	misses[8] 	29953
scalar abilene_cost_network.node[8].content_store 	decision_yes[8] 	38
scalar abilene_cost_network.node[8].content_store 	decision_no[8] 	29916
scalar abilene_cost_network.node[8].content_store 	decision_ratio[8] 	0.0012686118715364
scalar abilene_cost_network.node[9].core_layer 	interests[9] 	29953
scalar abilene_cost_network.node[9].core_layer 	data[9] 	27580
scalar abilene_cost_network.node[9].content_store 	p_hit[9] 	0.079257503422028
scalar abilene_cost_network.node[9].content_store 	hits[9] 	2374
scalar abilene_cost_network.node[9].content_store 	misses[9] 	27579
scalar abilene_cost_network.node[9].content_store 	decision_yes[9] 	35
scalar abilene_cost_network.node[9].content_store 	decision_no[9] 	27545
scalar abilene_cost_network.node[9].content_store 	decision_ratio[9] 	0.0012690355329949
scalar abilene_cost_network.node[10].core_layer 	interests[10] 	91417
scalar abilene_cost_network.node[10].core_layer 	repo_load[10] 	84067
scalar abilene_cost_network.node[10].core_layer 	data[10] 	0
scalar abilene_cost_network.node[10].content_store 	p_hit[10] 	0.080400800726342
scalar abilene_cost_network.node[10].content_store 	hits[10] 	7350
scalar abilene_cost_network.node[10].content_store 	misses[10] 	84067
scalar abilene_cost_network.node[10].content_store 	decision_yes[10] 	78
scalar abilene_cost_network.node[10].content_store 	decision_no[10] 	83989
scalar abilene_cost_network.node[10].content_store 	decision_ratio[10] 	0.00092783137259567
scalar abilene_cost_network.client[2] 	hdistance[2] 	1.2896135373121
scalar abilene_cost_network.client[2] 	downloads[2] 	179888
scalar abilene_cost_network.client[2] 	avg_time[2] 	0.006132993946
scalar abilene_cost_network.client[4] 	hdistance[4] 	2.2995012662727
scalar abilene_cost_network.client[4] 	downloads[4] 	180056
scalar abilene_cost_network.client[4] 	avg_time[4] 	0.009281093079
scalar abilene_cost_network.client[6] 	hdistance[6] 	2.5602282133472
scalar abilene_cost_network.client[6] 	downloads[6] 	180007
scalar abilene_cost_network.client[6] 	avg_time[6] 	0.013702650487
