version 2
run General-9-20141007-11:20:40-15334
attr D fix0.001
attr F spr
attr R lru
attr a 1
attr configname General
attr csize 1e3
attr ctlg 1e5
attr datetime 20141007-11:20:40
attr experiment General
attr inifile omnetpp.ini
attr iterationvars "$net=abilene_cost, $rep=2, $priceratiovalue=10, $weights=0.333_0.333_0.334, $lambda=100, $a=1, $ctlg=1e5, $F=spr, $ttl=10, $D=fix0.001, $xi=1, $R=lru, $csize=1e3, $pricebits=0, $window=60, $variance=0.05, $mytime=1800"
attr iterationvars2 "$net=abilene_cost, $rep=2, $priceratiovalue=10, $weights=0.333_0.333_0.334, $lambda=100, $a=1, $ctlg=1e5, $F=spr, $ttl=10, $D=fix0.001, $xi=1, $R=lru, $csize=1e3, $pricebits=0, $window=60, $variance=0.05, $mytime=1800, $repetition=0"
attr lambda 100
attr measurement "$net=abilene_cost, $rep=2, $priceratiovalue=10, $weights=0.333_0.333_0.334, $lambda=100, $a=1, $ctlg=1e5, $F=spr, $ttl=10, $D=fix0.001, $xi=1, $R=lru, $csize=1e3, $pricebits=0, $window=60, $variance=0.05, $mytime=1800"
attr mytime 1800
attr net abilene_cost
attr network networks.${net=abilene_cost,geant_cost}_network
attr pricebits 0
attr priceratiovalue 10
attr processid 15334
attr rep 2
attr repetition 0
attr replication #0
attr resultdir results
attr runnumber 9
attr seedset 2
attr ttl 10
attr variance 0.05
attr weights 0.333_0.333_0.334
attr window 60
attr xi 1

scalar . 	a 	1
scalar . 	csize 	1e3
scalar . 	ctlg 	1e5
scalar . 	lambda 	100
scalar . 	mytime 	1800
scalar . 	pricebits 	0
scalar . 	priceratiovalue 	10
scalar . 	rep 	2
scalar . 	ttl 	10
scalar . 	variance 	0.05
scalar . 	window 	60
scalar . 	xi 	1
scalar abilene_cost_network.content_distribution 	repo-0 	4
scalar abilene_cost_network.content_distribution 	repo-1 	9
scalar abilene_cost_network.content_distribution 	repo-2 	6
scalar abilene_cost_network.content_distribution 	client-0 	3
scalar abilene_cost_network.content_distribution 	client-1 	7
scalar abilene_cost_network.content_distribution 	client-2 	9
scalar abilene_cost_network.content_distribution 	repo-0_card 	33329
scalar abilene_cost_network.content_distribution 	repo-0_price 	1
scalar abilene_cost_network.content_distribution 	repo-1_card 	33052
scalar abilene_cost_network.content_distribution 	repo-1_price 	10
scalar abilene_cost_network.content_distribution 	repo-2_card 	33619
scalar abilene_cost_network.content_distribution 	repo-2_price 	0
scalar abilene_cost_network.statistics 	repo_popularity[0] 	0.33984204835506
scalar abilene_cost_network.statistics 	repo_popularity[1] 	0.39407385110283
scalar abilene_cost_network.statistics 	repo_popularity[2] 	0.26608410054213
scalar abilene_cost_network.statistics 	stabilization_time 	36060
scalar abilene_cost_network.statistics 	p_hit 	0.23634945465569
scalar abilene_cost_network.statistics 	interests 	104662.81818182
scalar abilene_cost_network.statistics 	data 	55580
scalar abilene_cost_network.statistics 	hdistance 	1.6286208803812
scalar abilene_cost_network.statistics 	avg_time 	0.008184976985
scalar abilene_cost_network.statistics 	downloads 	539865
scalar abilene_cost_network.statistics 	total_cost 	1038181
scalar abilene_cost_network.statistics 	total_replicas 	100000
scalar abilene_cost_network.statistics 	inner_hit 	0.50405749585545
scalar abilene_cost_network.node[0].core_layer 	interests[0] 	0
scalar abilene_cost_network.node[0].core_layer 	data[0] 	0
scalar abilene_cost_network.node[0].core_layer 	repo_int[0] 	267742
scalar abilene_cost_network.node[0].content_store 	p_hit[0] 	-nan
scalar abilene_cost_network.node[0].content_store 	hits[0] 	0
scalar abilene_cost_network.node[0].content_store 	misses[0] 	0
scalar abilene_cost_network.node[0].content_store 	decision_yes[0] 	0
scalar abilene_cost_network.node[0].content_store 	decision_no[0] 	0
scalar abilene_cost_network.node[0].content_store 	decision_ratio[0] 	0
scalar abilene_cost_network.node[1].core_layer 	interests[1] 	0
scalar abilene_cost_network.node[1].core_layer 	data[1] 	0
scalar abilene_cost_network.node[1].content_store 	p_hit[1] 	-nan
scalar abilene_cost_network.node[1].content_store 	hits[1] 	0
scalar abilene_cost_network.node[1].content_store 	misses[1] 	0
scalar abilene_cost_network.node[1].content_store 	decision_yes[1] 	0
scalar abilene_cost_network.node[1].content_store 	decision_no[1] 	0
scalar abilene_cost_network.node[1].content_store 	decision_ratio[1] 	0
scalar abilene_cost_network.node[2].core_layer 	interests[2] 	72307
scalar abilene_cost_network.node[2].core_layer 	data[2] 	64517
scalar abilene_cost_network.node[2].content_store 	p_hit[2] 	0.10773507405922
scalar abilene_cost_network.node[2].content_store 	hits[2] 	7790
scalar abilene_cost_network.node[2].content_store 	misses[2] 	64517
scalar abilene_cost_network.node[2].content_store 	decision_yes[2] 	70
scalar abilene_cost_network.node[2].content_store 	decision_no[2] 	64447
scalar abilene_cost_network.node[2].content_store 	decision_ratio[2] 	0.0010849853526977
scalar abilene_cost_network.node[3].core_layer 	interests[3] 	247647
scalar abilene_cost_network.node[3].core_layer 	data[3] 	171323
scalar abilene_cost_network.node[3].content_store 	p_hit[3] 	0.30812810169314
scalar abilene_cost_network.node[3].content_store 	hits[3] 	76307
scalar abilene_cost_network.node[3].content_store 	misses[3] 	171340
scalar abilene_cost_network.node[3].content_store 	decision_yes[3] 	186
scalar abilene_cost_network.node[3].content_store 	decision_no[3] 	171137
scalar abilene_cost_network.node[3].content_store 	decision_ratio[3] 	0.0010856685909072
scalar abilene_cost_network.node[4].core_layer 	interests[4] 	96120
scalar abilene_cost_network.node[4].core_layer 	repo_load[4] 	86541
scalar abilene_cost_network.node[4].core_layer 	data[4] 	0
scalar abilene_cost_network.node[4].content_store 	p_hit[4] 	0.099656679151061
scalar abilene_cost_network.node[4].content_store 	hits[4] 	9579
scalar abilene_cost_network.node[4].content_store 	misses[4] 	86541
scalar abilene_cost_network.node[4].content_store 	decision_yes[4] 	78
scalar abilene_cost_network.node[4].content_store 	decision_no[4] 	86463
scalar abilene_cost_network.node[4].content_store 	decision_ratio[4] 	0.00090130689499775
scalar abilene_cost_network.node[5].core_layer 	interests[5] 	0
scalar abilene_cost_network.node[5].core_layer 	data[5] 	0
scalar abilene_cost_network.node[5].content_store 	p_hit[5] 	-nan
scalar abilene_cost_network.node[5].content_store 	hits[5] 	0
scalar abilene_cost_network.node[5].content_store 	misses[5] 	0
scalar abilene_cost_network.node[5].content_store 	decision_yes[5] 	0
scalar abilene_cost_network.node[5].content_store 	decision_no[5] 	0
scalar abilene_cost_network.node[5].content_store 	decision_ratio[5] 	0
scalar abilene_cost_network.node[6].core_layer 	interests[6] 	97748
scalar abilene_cost_network.node[6].core_layer 	repo_load[6] 	86037
scalar abilene_cost_network.node[6].core_layer 	data[6] 	0
scalar abilene_cost_network.node[6].content_store 	p_hit[6] 	0.11980807791464
scalar abilene_cost_network.node[6].content_store 	hits[6] 	11711
scalar abilene_cost_network.node[6].content_store 	misses[6] 	86037
scalar abilene_cost_network.node[6].content_store 	decision_yes[6] 	90
scalar abilene_cost_network.node[6].content_store 	decision_no[6] 	85947
scalar abilene_cost_network.node[6].content_store 	decision_ratio[6] 	0.0010460615781582
scalar abilene_cost_network.node[7].core_layer 	interests[7] 	250560
scalar abilene_cost_network.node[7].core_layer 	data[7] 	172776
scalar abilene_cost_network.node[7].content_store 	p_hit[7] 	0.31033684546616
scalar abilene_cost_network.node[7].content_store 	hits[7] 	77758
scalar abilene_cost_network.node[7].content_store 	misses[7] 	172802
scalar abilene_cost_network.node[7].content_store 	decision_yes[7] 	166
scalar abilene_cost_network.node[7].content_store 	decision_no[7] 	172610
scalar abilene_cost_network.node[7].content_store 	decision_ratio[7] 	0.00096078159003565
scalar abilene_cost_network.node[8].core_layer 	interests[8] 	144130
scalar abilene_cost_network.node[8].core_layer 	data[8] 	130332
scalar abilene_cost_network.node[8].content_store 	p_hit[8] 	0.095719142440852
scalar abilene_cost_network.node[8].content_store 	hits[8] 	13796
scalar abilene_cost_network.node[8].content_store 	misses[8] 	130334
scalar abilene_cost_network.node[8].content_store 	decision_yes[8] 	143
scalar abilene_cost_network.node[8].content_store 	decision_no[8] 	130189
scalar abilene_cost_network.node[8].content_store 	decision_ratio[8] 	0.0010971979252985
scalar abilene_cost_network.node[9].core_layer 	interests[9] 	242779
scalar abilene_cost_network.node[9].core_layer 	repo_load[9] 	95164
scalar abilene_cost_network.node[9].core_layer 	data[9] 	72432
scalar abilene_cost_network.node[9].content_store 	p_hit[9] 	0.30960667932564
scalar abilene_cost_network.node[9].content_store 	hits[9] 	75166
scalar abilene_cost_network.node[9].content_store 	misses[9] 	167613
scalar abilene_cost_network.node[9].content_store 	decision_yes[9] 	158
scalar abilene_cost_network.node[9].content_store 	decision_no[9] 	167438
scalar abilene_cost_network.node[9].content_store 	decision_ratio[9] 	0.00094274326356238
scalar abilene_cost_network.node[10].core_layer 	interests[10] 	0
scalar abilene_cost_network.node[10].core_layer 	data[10] 	0
scalar abilene_cost_network.node[10].content_store 	p_hit[10] 	-nan
scalar abilene_cost_network.node[10].content_store 	hits[10] 	0
scalar abilene_cost_network.node[10].content_store 	misses[10] 	0
scalar abilene_cost_network.node[10].content_store 	decision_yes[10] 	0
scalar abilene_cost_network.node[10].content_store 	decision_no[10] 	0
scalar abilene_cost_network.node[10].content_store 	decision_ratio[10] 	0
scalar abilene_cost_network.client[3] 	hdistance[3] 	1.6135371300483
scalar abilene_cost_network.client[3] 	downloads[3] 	179787
scalar abilene_cost_network.client[3] 	avg_time[3] 	0.007070015648
scalar abilene_cost_network.client[7] 	hdistance[7] 	1.463937481281
scalar abilene_cost_network.client[7] 	downloads[7] 	180298
scalar abilene_cost_network.client[7] 	avg_time[7] 	0.006657597363
scalar abilene_cost_network.client[9] 	hdistance[9] 	1.8083880298142
scalar abilene_cost_network.client[9] 	downloads[9] 	179780
scalar abilene_cost_network.client[9] 	avg_time[9] 	0.010827317945
