version 2
run General-9-20141007-11:46:33-22082
attr D fix0.001
attr F spr
attr R lru
attr a 1
attr configname General
attr csize 1e3
attr ctlg 1e5
attr datetime 20141007-11:46:33
attr experiment General
attr inifile omnetpp.ini
attr iterationvars "$net=abilene_cost, $rep=3, $priceratiovalue=10, $weights=0.333_0.333_0.334, $lambda=100, $a=1, $ctlg=1e5, $F=spr, $ttl=10, $D=fix0.001, $xi=1, $R=lru, $csize=1e3, $pricebits=0, $window=60, $variance=0.05, $mytime=1800"
attr iterationvars2 "$net=abilene_cost, $rep=3, $priceratiovalue=10, $weights=0.333_0.333_0.334, $lambda=100, $a=1, $ctlg=1e5, $F=spr, $ttl=10, $D=fix0.001, $xi=1, $R=lru, $csize=1e3, $pricebits=0, $window=60, $variance=0.05, $mytime=1800, $repetition=0"
attr lambda 100
attr measurement "$net=abilene_cost, $rep=3, $priceratiovalue=10, $weights=0.333_0.333_0.334, $lambda=100, $a=1, $ctlg=1e5, $F=spr, $ttl=10, $D=fix0.001, $xi=1, $R=lru, $csize=1e3, $pricebits=0, $window=60, $variance=0.05, $mytime=1800"
attr mytime 1800
attr net abilene_cost
attr network networks.${net=abilene_cost,geant_cost}_network
attr pricebits 0
attr priceratiovalue 10
attr processid 22082
attr rep 3
attr repetition 0
attr replication #0
attr resultdir results
attr runnumber 9
attr seedset 3
attr ttl 10
attr variance 0.05
attr weights 0.333_0.333_0.334
attr window 60
attr xi 1

scalar . 	a 	1
scalar . 	csize 	1e3
scalar . 	ctlg 	1e5
scalar . 	lambda 	100
scalar . 	mytime 	1800
scalar . 	pricebits 	0
scalar . 	priceratiovalue 	10
scalar . 	rep 	3
scalar . 	ttl 	10
scalar . 	variance 	0.05
scalar . 	window 	60
scalar . 	xi 	1
scalar abilene_cost_network.content_distribution 	repo-0 	9
scalar abilene_cost_network.content_distribution 	repo-1 	4
scalar abilene_cost_network.content_distribution 	repo-2 	0
scalar abilene_cost_network.content_distribution 	client-0 	9
scalar abilene_cost_network.content_distribution 	client-1 	0
scalar abilene_cost_network.content_distribution 	client-2 	1
scalar abilene_cost_network.content_distribution 	repo-0_card 	33498
scalar abilene_cost_network.content_distribution 	repo-0_price 	0
scalar abilene_cost_network.content_distribution 	repo-1_card 	33168
scalar abilene_cost_network.content_distribution 	repo-1_price 	10
scalar abilene_cost_network.content_distribution 	repo-2_card 	33334
scalar abilene_cost_network.content_distribution 	repo-2_price 	1
scalar abilene_cost_network.statistics 	repo_popularity[0] 	0.34820484875244
scalar abilene_cost_network.statistics 	repo_popularity[1] 	0.25519349814637
scalar abilene_cost_network.statistics 	repo_popularity[2] 	0.3966016531012
scalar abilene_cost_network.statistics 	stabilization_time 	36060
scalar abilene_cost_network.statistics 	p_hit 	0.2448204138292
scalar abilene_cost_network.statistics 	interests 	101442.81818182
scalar abilene_cost_network.statistics 	data 	52443.909090909
scalar abilene_cost_network.statistics 	hdistance 	1.5635365856342
scalar abilene_cost_network.statistics 	avg_time 	0.006950812998
scalar abilene_cost_network.statistics 	downloads 	538934
scalar abilene_cost_network.statistics 	total_cost 	838732
scalar abilene_cost_network.statistics 	total_replicas 	100000
scalar abilene_cost_network.statistics 	inner_hit 	0.50691550356815
scalar abilene_cost_network.node[0].core_layer 	interests[0] 	246823
scalar abilene_cost_network.node[0].core_layer 	repo_load[0] 	94202
scalar abilene_cost_network.node[0].core_layer 	data[0] 	75078
scalar abilene_cost_network.node[0].core_layer 	repo_int[0] 	265740
scalar abilene_cost_network.node[0].content_store 	p_hit[0] 	0.31409552594369
scalar abilene_cost_network.node[0].content_store 	hits[0] 	77526
scalar abilene_cost_network.node[0].content_store 	misses[0] 	169297
scalar abilene_cost_network.node[0].content_store 	decision_yes[0] 	167
scalar abilene_cost_network.node[0].content_store 	decision_no[0] 	169113
scalar abilene_cost_network.node[0].content_store 	decision_ratio[0] 	0.00098653119092628
scalar abilene_cost_network.node[1].core_layer 	interests[1] 	216284
scalar abilene_cost_network.node[1].core_layer 	data[1] 	140470
scalar abilene_cost_network.node[1].content_store 	p_hit[1] 	0.3504096465758
scalar abilene_cost_network.node[1].content_store 	hits[1] 	75788
scalar abilene_cost_network.node[1].content_store 	misses[1] 	140496
scalar abilene_cost_network.node[1].content_store 	decision_yes[1] 	144
scalar abilene_cost_network.node[1].content_store 	decision_no[1] 	140326
scalar abilene_cost_network.node[1].content_store 	decision_ratio[1] 	0.0010251299209796
scalar abilene_cost_network.node[2].core_layer 	interests[2] 	97567
scalar abilene_cost_network.node[2].core_layer 	data[2] 	84893
scalar abilene_cost_network.node[2].content_store 	p_hit[2] 	0.12990047864544
scalar abilene_cost_network.node[2].content_store 	hits[2] 	12674
scalar abilene_cost_network.node[2].content_store 	misses[2] 	84893
scalar abilene_cost_network.node[2].content_store 	decision_yes[2] 	101
scalar abilene_cost_network.node[2].content_store 	decision_no[2] 	84792
scalar abilene_cost_network.node[2].content_store 	decision_ratio[2] 	0.0011897329579588
scalar abilene_cost_network.node[3].core_layer 	interests[3] 	84892
scalar abilene_cost_network.node[3].core_layer 	data[3] 	79174
scalar abilene_cost_network.node[3].content_store 	p_hit[3] 	0.067367949865712
scalar abilene_cost_network.node[3].content_store 	hits[3] 	5719
scalar abilene_cost_network.node[3].content_store 	misses[3] 	79173
scalar abilene_cost_network.node[3].content_store 	decision_yes[3] 	73
scalar abilene_cost_network.node[3].content_store 	decision_no[3] 	79101
scalar abilene_cost_network.node[3].content_store 	decision_ratio[3] 	0.00092201985500291
scalar abilene_cost_network.node[4].core_layer 	interests[4] 	79174
scalar abilene_cost_network.node[4].core_layer 	repo_load[4] 	74453
scalar abilene_cost_network.node[4].core_layer 	data[4] 	0
scalar abilene_cost_network.node[4].content_store 	p_hit[4] 	0.059628160759845
scalar abilene_cost_network.node[4].content_store 	hits[4] 	4721
scalar abilene_cost_network.node[4].content_store 	misses[4] 	74453
scalar abilene_cost_network.node[4].content_store 	decision_yes[4] 	70
scalar abilene_cost_network.node[4].content_store 	decision_no[4] 	74383
scalar abilene_cost_network.node[4].content_store 	decision_ratio[4] 	0.00094019045572375
scalar abilene_cost_network.node[5].core_layer 	interests[5] 	0
scalar abilene_cost_network.node[5].core_layer 	data[5] 	0
scalar abilene_cost_network.node[5].content_store 	p_hit[5] 	-nan
scalar abilene_cost_network.node[5].content_store 	hits[5] 	0
scalar abilene_cost_network.node[5].content_store 	misses[5] 	0
scalar abilene_cost_network.node[5].content_store 	decision_yes[5] 	0
scalar abilene_cost_network.node[5].content_store 	decision_no[5] 	0
scalar abilene_cost_network.node[5].content_store 	decision_ratio[5] 	0
scalar abilene_cost_network.node[6].core_layer 	interests[6] 	0
scalar abilene_cost_network.node[6].core_layer 	data[6] 	0
scalar abilene_cost_network.node[6].content_store 	p_hit[6] 	-nan
scalar abilene_cost_network.node[6].content_store 	hits[6] 	0
scalar abilene_cost_network.node[6].content_store 	misses[6] 	0
scalar abilene_cost_network.node[6].content_store 	decision_yes[6] 	0
scalar abilene_cost_network.node[6].content_store 	decision_no[6] 	0
scalar abilene_cost_network.node[6].content_store 	decision_ratio[6] 	0
scalar abilene_cost_network.node[7].core_layer 	interests[7] 	0
scalar abilene_cost_network.node[7].core_layer 	data[7] 	0
scalar abilene_cost_network.node[7].content_store 	p_hit[7] 	-nan
scalar abilene_cost_network.node[7].content_store 	hits[7] 	0
scalar abilene_cost_network.node[7].content_store 	misses[7] 	0
scalar abilene_cost_network.node[7].content_store 	decision_yes[7] 	0
scalar abilene_cost_network.node[7].content_store 	decision_no[7] 	0
scalar abilene_cost_network.node[7].content_store 	decision_ratio[7] 	0
scalar abilene_cost_network.node[8].core_layer 	interests[8] 	36864
scalar abilene_cost_network.node[8].core_layer 	data[8] 	30616
scalar abilene_cost_network.node[8].content_store 	p_hit[8] 	0.16951497395833
scalar abilene_cost_network.node[8].content_store 	hits[8] 	6249
scalar abilene_cost_network.node[8].content_store 	misses[8] 	30615
scalar abilene_cost_network.node[8].content_store 	decision_yes[8] 	31
scalar abilene_cost_network.node[8].content_store 	decision_no[8] 	30585
scalar abilene_cost_network.node[8].content_store 	decision_ratio[8] 	0.0010125424614581
scalar abilene_cost_network.node[9].core_layer 	interests[9] 	242933
scalar abilene_cost_network.node[9].core_layer 	repo_load[9] 	97085
scalar abilene_cost_network.node[9].core_layer 	data[9] 	71179
scalar abilene_cost_network.node[9].content_store 	p_hit[9] 	0.30729460386197
scalar abilene_cost_network.node[9].content_store 	hits[9] 	74652
scalar abilene_cost_network.node[9].content_store 	misses[9] 	168281
scalar abilene_cost_network.node[9].content_store 	decision_yes[9] 	178
scalar abilene_cost_network.node[9].content_store 	decision_no[9] 	168086
scalar abilene_cost_network.node[9].content_store 	decision_ratio[9] 	0.0010578614558075
scalar abilene_cost_network.node[10].core_layer 	interests[10] 	111334
scalar abilene_cost_network.node[10].core_layer 	data[10] 	95473
scalar abilene_cost_network.node[10].content_store 	p_hit[10] 	0.14244525481883
scalar abilene_cost_network.node[10].content_store 	hits[10] 	15859
scalar abilene_cost_network.node[10].content_store 	misses[10] 	95475
scalar abilene_cost_network.node[10].content_store 	decision_yes[10] 	85
scalar abilene_cost_network.node[10].content_store 	decision_no[10] 	95388
scalar abilene_cost_network.node[10].content_store 	decision_ratio[10] 	0.00089030406502362
scalar abilene_cost_network.client[0] 	hdistance[0] 	1.5710976528704
scalar abilene_cost_network.client[0] 	downloads[0] 	179155
scalar abilene_cost_network.client[0] 	avg_time[0] 	0.006597239713
scalar abilene_cost_network.client[1] 	hdistance[1] 	1.5659222323014
scalar abilene_cost_network.client[1] 	downloads[1] 	179689
scalar abilene_cost_network.client[1] 	avg_time[1] 	0.007048686539
scalar abilene_cost_network.client[9] 	hdistance[9] 	1.5535898717308
scalar abilene_cost_network.client[9] 	downloads[9] 	180090
scalar abilene_cost_network.client[9] 	avg_time[9] 	0.007206512743
