version 2
run General-7-20150721-00:21:46-24439
attr C 1e6
attr D lce
attr F spr
attr R always_highq
attr a 1
attr brates 0.3_0.7_1.5_2.5_3.5
attr configname General
attr ctlg 1e8
attr datetime 20150721-00:21:46
attr experiment General
attr inifile omnetpp.ini
attr iterationvars "$net=abilene_nodelay, $rep=3, $lambda=100, $a=1, $ctlg=1e8, $brates=0.3_0.7_1.5_2.5_3.5, $F=spr, $ttl=1000, $D=lce, $R=always_highq, $C=1e6, $window=60, $variance=0.05, $mytime=180000"
attr iterationvars2 "$net=abilene_nodelay, $rep=3, $lambda=100, $a=1, $ctlg=1e8, $brates=0.3_0.7_1.5_2.5_3.5, $F=spr, $ttl=1000, $D=lce, $R=always_highq, $C=1e6, $window=60, $variance=0.05, $mytime=180000, $repetition=0"
attr lambda 100
attr measurement "$net=abilene_nodelay, $rep=3, $lambda=100, $a=1, $ctlg=1e8, $brates=0.3_0.7_1.5_2.5_3.5, $F=spr, $ttl=1000, $D=lce, $R=always_highq, $C=1e6, $window=60, $variance=0.05, $mytime=180000"
attr mytime 180000
attr net abilene_nodelay
attr network networks.${net=abilene_nodelay}_network
attr processid 24439
attr rep 3
attr repetition 0
attr replication #0
attr resultdir results
attr runnumber 7
attr seedset 3
attr ttl 1000
attr variance 0.05
attr window 60

scalar . 	C 	1e6
scalar . 	a 	1
scalar . 	ctlg 	1e8
scalar . 	lambda 	100
scalar . 	mytime 	180000
scalar . 	rep 	3
scalar . 	ttl 	1000
scalar . 	variance 	0.05
scalar . 	window 	60
scalar abilene_nodelay_network.content_distribution 	repo-0 	9
scalar abilene_nodelay_network.content_distribution 	repo-1 	4
scalar abilene_nodelay_network.content_distribution 	repo-2 	0
scalar abilene_nodelay_network.content_distribution 	repo-3 	1
scalar abilene_nodelay_network.content_distribution 	repo-4 	10
scalar abilene_nodelay_network.content_distribution 	repo-5 	8
scalar abilene_nodelay_network.content_distribution 	repo-6 	6
scalar abilene_nodelay_network.content_distribution 	repo-7 	3
scalar abilene_nodelay_network.content_distribution 	repo-8 	5
scalar abilene_nodelay_network.content_distribution 	repo-9 	2
scalar abilene_nodelay_network.content_distribution 	repo-10 	7
scalar abilene_nodelay_network.content_distribution 	client-0 	8
scalar abilene_nodelay_network.content_distribution 	client-1 	10
scalar abilene_nodelay_network.content_distribution 	client-2 	9
scalar abilene_nodelay_network.content_distribution 	client-3 	2
scalar abilene_nodelay_network.content_distribution 	client-4 	0
scalar abilene_nodelay_network.content_distribution 	client-5 	6
scalar abilene_nodelay_network.content_distribution 	client-6 	7
scalar abilene_nodelay_network.content_distribution 	client-7 	1
scalar abilene_nodelay_network.content_distribution 	client-8 	4
scalar abilene_nodelay_network.content_distribution 	client-9 	5
scalar abilene_nodelay_network.content_distribution 	client-10 	3
scalar abilene_nodelay_network.content_distribution 	repo-0_card 	9090253
scalar abilene_nodelay_network.content_distribution 	repo-0_price 	0
scalar abilene_nodelay_network.content_distribution 	repo-1_card 	9092912
scalar abilene_nodelay_network.content_distribution 	repo-1_price 	0
scalar abilene_nodelay_network.content_distribution 	repo-2_card 	9089959
scalar abilene_nodelay_network.content_distribution 	repo-2_price 	0
scalar abilene_nodelay_network.content_distribution 	repo-3_card 	9087600
scalar abilene_nodelay_network.content_distribution 	repo-3_price 	0
scalar abilene_nodelay_network.content_distribution 	repo-4_card 	9091845
scalar abilene_nodelay_network.content_distribution 	repo-4_price 	0
scalar abilene_nodelay_network.content_distribution 	repo-5_card 	9096523
scalar abilene_nodelay_network.content_distribution 	repo-5_price 	0
scalar abilene_nodelay_network.content_distribution 	repo-6_card 	9091236
scalar abilene_nodelay_network.content_distribution 	repo-6_price 	0
scalar abilene_nodelay_network.content_distribution 	repo-7_card 	9088149
scalar abilene_nodelay_network.content_distribution 	repo-7_price 	0
scalar abilene_nodelay_network.content_distribution 	repo-8_card 	9087263
scalar abilene_nodelay_network.content_distribution 	repo-8_price 	0
scalar abilene_nodelay_network.content_distribution 	repo-9_card 	9094413
scalar abilene_nodelay_network.content_distribution 	repo-9_price 	0
scalar abilene_nodelay_network.content_distribution 	repo-10_card 	9089847
scalar abilene_nodelay_network.content_distribution 	repo-10_price 	0
scalar abilene_nodelay_network.statistics 	stabilization_time 	30530.6
scalar abilene_nodelay_network.statistics 	p_hit 	0.19320437477946
scalar abilene_nodelay_network.statistics 	interests 	59572050.272727
scalar abilene_nodelay_network.statistics 	data 	23812697.272727
scalar abilene_nodelay_network.statistics 	hdistance 	1.0573757766821
scalar abilene_nodelay_network.statistics 	avg_time 	0
scalar abilene_nodelay_network.statistics 	downloads 	197992406
scalar abilene_nodelay_network.statistics 	total_cost 	0
scalar abilene_nodelay_network.statistics 	total_replicas 	100000000
scalar abilene_nodelay_network.statistics 	"representations_downloaded 0.360554:0:0:0:0.639446:" 	0
scalar abilene_nodelay_network.statistics 	"slots_per_representation 100:233:500:833:1167:" 	0
scalar abilene_nodelay_network.statistics 	inner_hit 	0.0092379149127568
scalar abilene_nodelay_network.statistics 	execution_time 	14645
scalar abilene_nodelay_network.node[0].core_layer 	interests[0] 	38270693
scalar abilene_nodelay_network.node[0].core_layer 	repo_load[0] 	17417653
scalar abilene_nodelay_network.node[0].core_layer 	data[0] 	10115373
scalar abilene_nodelay_network.node[0].core_layer 	slots_sent[face$o[1]->client[0]] 	14172916412
scalar abilene_nodelay_network.node[0].core_layer 	slots_sent[face$o[2]->node[1]] 	4555186818
scalar abilene_nodelay_network.node[0].core_layer 	slots_sent[face$o[3]->node[10]] 	1298820705
scalar abilene_nodelay_network.node[0].content_store 	p_hit[0] 	0.28057153289594
scalar abilene_nodelay_network.node[0].content_store 	hits[0] 	10737667
scalar abilene_nodelay_network.node[0].content_store 	misses[0] 	27533026
scalar abilene_nodelay_network.node[0].content_store 	decision_yes[0] 	5486721
scalar abilene_nodelay_network.node[0].content_store 	decision_no[0] 	22046305
scalar abilene_nodelay_network.node[0].content_store 	decision_ratio[0] 	0.19927780549802
scalar abilene_nodelay_network.node[0].proactive_component 	hdistance[0].proactive_component 	2.2093858474616
scalar abilene_nodelay_network.node[0].proactive_component 	downloads[0].proactive_component 	13005922
scalar abilene_nodelay_network.node[0].proactive_component 	avg_time[0].proactive_component 	0
scalar abilene_nodelay_network.node[1].core_layer 	interests[1] 	70961691
scalar abilene_nodelay_network.node[1].core_layer 	repo_load[1] 	18215059
scalar abilene_nodelay_network.node[1].core_layer 	data[1] 	31172229
scalar abilene_nodelay_network.node[1].core_layer 	slots_sent[face$o[1]->client[1]] 	13917379504
scalar abilene_nodelay_network.node[1].core_layer 	slots_sent[face$o[2]->node[0]] 	5485276938
scalar abilene_nodelay_network.node[1].core_layer 	slots_sent[face$o[3]->node[10]] 	4162730641
scalar abilene_nodelay_network.node[1].core_layer 	slots_sent[face$o[4]->node[2]] 	11259225808
scalar abilene_nodelay_network.node[1].content_store 	p_hit[1] 	0.16494750667652
scalar abilene_nodelay_network.node[1].content_store 	hits[1] 	11704954
scalar abilene_nodelay_network.node[1].content_store 	misses[1] 	59256737
scalar abilene_nodelay_network.node[1].content_store 	decision_yes[1] 	16309968
scalar abilene_nodelay_network.node[1].content_store 	decision_no[1] 	33077320
scalar abilene_nodelay_network.node[1].content_store 	decision_ratio[1] 	0.33024627713917
scalar abilene_nodelay_network.node[1].proactive_component 	hdistance[1].proactive_component 	2.3343511271768
scalar abilene_nodelay_network.node[1].proactive_component 	downloads[1].proactive_component 	25301129
scalar abilene_nodelay_network.node[1].proactive_component 	avg_time[1].proactive_component 	0
scalar abilene_nodelay_network.node[2].core_layer 	interests[2] 	95582077
scalar abilene_nodelay_network.node[2].core_layer 	repo_load[2] 	18693821
scalar abilene_nodelay_network.node[2].core_layer 	data[2] 	47074362
scalar abilene_nodelay_network.node[2].core_layer 	slots_sent[face$o[1]->client[2]] 	13870465035
scalar abilene_nodelay_network.node[2].core_layer 	slots_sent[face$o[2]->node[1]] 	12074108694
scalar abilene_nodelay_network.node[2].core_layer 	slots_sent[face$o[3]->node[3]] 	14495014695
scalar abilene_nodelay_network.node[2].core_layer 	slots_sent[face$o[4]->node[8]] 	5721410961
scalar abilene_nodelay_network.node[2].content_store 	p_hit[2] 	0.12996246147696
scalar abilene_nodelay_network.node[2].content_store 	hits[2] 	12422082
scalar abilene_nodelay_network.node[2].content_store 	misses[2] 	83159995
scalar abilene_nodelay_network.node[2].content_store 	decision_yes[2] 	24558245
scalar abilene_nodelay_network.node[2].content_store 	decision_no[2] 	41209938
scalar abilene_nodelay_network.node[2].content_store 	decision_ratio[2] 	0.3734061651057
scalar abilene_nodelay_network.node[2].proactive_component 	hdistance[2].proactive_component 	2.3366219809932
scalar abilene_nodelay_network.node[2].proactive_component 	downloads[2].proactive_component 	34445567
scalar abilene_nodelay_network.node[2].proactive_component 	avg_time[2].proactive_component 	0
scalar abilene_nodelay_network.node[3].core_layer 	interests[3] 	89202039
scalar abilene_nodelay_network.node[3].core_layer 	repo_load[3] 	18045850
scalar abilene_nodelay_network.node[3].core_layer 	data[3] 	43113966
scalar abilene_nodelay_network.node[3].core_layer 	slots_sent[face$o[1]->client[3]] 	14185641294
scalar abilene_nodelay_network.node[3].core_layer 	slots_sent[face$o[2]->node[2]] 	14245477504
scalar abilene_nodelay_network.node[3].core_layer 	slots_sent[face$o[3]->node[4]] 	8911359270
scalar abilene_nodelay_network.node[3].core_layer 	slots_sent[face$o[4]->node[7]] 	6383525999
scalar abilene_nodelay_network.node[3].content_store 	p_hit[3] 	0.14069328617029
scalar abilene_nodelay_network.node[3].content_store 	hits[3] 	12550128
scalar abilene_nodelay_network.node[3].content_store 	misses[3] 	76651911
scalar abilene_nodelay_network.node[3].content_store 	decision_yes[3] 	22541208
scalar abilene_nodelay_network.node[3].content_store 	decision_no[3] 	38618608
scalar abilene_nodelay_network.node[3].content_store 	decision_ratio[3] 	0.36856239070438
scalar abilene_nodelay_network.node[3].proactive_component 	hdistance[3].proactive_component 	2.3605071327523
scalar abilene_nodelay_network.node[3].proactive_component 	downloads[3].proactive_component 	31807845
scalar abilene_nodelay_network.node[3].proactive_component 	avg_time[3].proactive_component 	0
scalar abilene_nodelay_network.node[4].core_layer 	interests[4] 	52876832
scalar abilene_nodelay_network.node[4].core_layer 	repo_load[4] 	17596009
scalar abilene_nodelay_network.node[4].core_layer 	data[4] 	19542898
scalar abilene_nodelay_network.node[4].core_layer 	slots_sent[face$o[1]->client[4]] 	14130330630
scalar abilene_nodelay_network.node[4].core_layer 	slots_sent[face$o[2]->node[3]] 	7958284330
scalar abilene_nodelay_network.node[4].core_layer 	slots_sent[face$o[3]->node[5]] 	4774970090
scalar abilene_nodelay_network.node[4].content_store 	p_hit[4] 	0.21470386122981
scalar abilene_nodelay_network.node[4].content_store 	hits[4] 	11352860
scalar abilene_nodelay_network.node[4].content_store 	misses[4] 	41523972
scalar abilene_nodelay_network.node[4].content_store 	decision_yes[4] 	10356899
scalar abilene_nodelay_network.node[4].content_store 	decision_no[4] 	26782008
scalar abilene_nodelay_network.node[4].content_store 	decision_ratio[4] 	0.27886924620587
scalar abilene_nodelay_network.node[4].proactive_component 	hdistance[4].proactive_component 	2.3102196623545
scalar abilene_nodelay_network.node[4].proactive_component 	downloads[4].proactive_component 	18380118
scalar abilene_nodelay_network.node[4].proactive_component 	avg_time[4].proactive_component 	0
scalar abilene_nodelay_network.node[5].core_layer 	interests[5] 	40429850
scalar abilene_nodelay_network.node[5].core_layer 	repo_load[5] 	15940436
scalar abilene_nodelay_network.node[5].core_layer 	data[5] 	12091611
scalar abilene_nodelay_network.node[5].core_layer 	slots_sent[face$o[1]->client[5]] 	14738953612
scalar abilene_nodelay_network.node[5].core_layer 	slots_sent[face$o[2]->node[4]] 	4093741763
scalar abilene_nodelay_network.node[5].core_layer 	slots_sent[face$o[3]->node[6]] 	3061625609
scalar abilene_nodelay_network.node[5].content_store 	p_hit[5] 	0.28265979220798
scalar abilene_nodelay_network.node[5].content_store 	hits[5] 	11427893
scalar abilene_nodelay_network.node[5].content_store 	misses[5] 	29001957
scalar abilene_nodelay_network.node[5].content_store 	decision_yes[5] 	6504266
scalar abilene_nodelay_network.node[5].content_store 	decision_no[5] 	21527781
scalar abilene_nodelay_network.node[5].content_store 	decision_ratio[5] 	0.23202964806673
scalar abilene_nodelay_network.node[5].proactive_component 	hdistance[5].proactive_component 	2.2680454772579
scalar abilene_nodelay_network.node[5].proactive_component 	downloads[5].proactive_component 	13374861
scalar abilene_nodelay_network.node[5].proactive_component 	avg_time[5].proactive_component 	0
scalar abilene_nodelay_network.node[6].core_layer 	interests[6] 	46313540
scalar abilene_nodelay_network.node[6].core_layer 	repo_load[6] 	16235930
scalar abilene_nodelay_network.node[6].core_layer 	data[6] 	15894927
scalar abilene_nodelay_network.node[6].core_layer 	slots_sent[face$o[1]->client[6]] 	14534425024
scalar abilene_nodelay_network.node[6].core_layer 	slots_sent[face$o[2]->node[5]] 	3374242832
scalar abilene_nodelay_network.node[6].core_layer 	slots_sent[face$o[3]->node[7]] 	6433648198
scalar abilene_nodelay_network.node[6].content_store 	p_hit[6] 	0.24793634863584
scalar abilene_nodelay_network.node[6].content_store 	hits[6] 	11482810
scalar abilene_nodelay_network.node[6].content_store 	misses[6] 	34830730
scalar abilene_nodelay_network.node[6].content_store 	decision_yes[6] 	8454085
scalar abilene_nodelay_network.node[6].content_store 	decision_no[6] 	23676772
scalar abilene_nodelay_network.node[6].content_store 	decision_ratio[6] 	0.26311420825159
scalar abilene_nodelay_network.node[6].proactive_component 	hdistance[6].proactive_component 	2.232105658892
scalar abilene_nodelay_network.node[6].proactive_component 	downloads[6].proactive_component 	15691022
scalar abilene_nodelay_network.node[6].proactive_component 	avg_time[6].proactive_component 	0
scalar abilene_nodelay_network.node[7].core_layer 	interests[7] 	65503810
scalar abilene_nodelay_network.node[7].core_layer 	repo_load[7] 	18236194
scalar abilene_nodelay_network.node[7].core_layer 	data[7] 	27312929
scalar abilene_nodelay_network.node[7].core_layer 	slots_sent[face$o[1]->client[7]] 	14209514195
scalar abilene_nodelay_network.node[7].core_layer 	slots_sent[face$o[2]->node[3]] 	5909566511
scalar abilene_nodelay_network.node[7].core_layer 	slots_sent[face$o[3]->node[6]] 	7548375786
scalar abilene_nodelay_network.node[7].core_layer 	slots_sent[face$o[4]->node[8]] 	5217849144
scalar abilene_nodelay_network.node[7].content_store 	p_hit[7] 	0.18258092162883
scalar abilene_nodelay_network.node[7].content_store 	hits[7] 	11959746
scalar abilene_nodelay_network.node[7].content_store 	misses[7] 	53544064
scalar abilene_nodelay_network.node[7].content_store 	decision_yes[7] 	14369287
scalar abilene_nodelay_network.node[7].content_store 	decision_no[7] 	31179836
scalar abilene_nodelay_network.node[7].content_store 	decision_ratio[7] 	0.31546791801019
scalar abilene_nodelay_network.node[7].proactive_component 	hdistance[7].proactive_component 	2.1939426891189
scalar abilene_nodelay_network.node[7].proactive_component 	downloads[7].proactive_component 	22970193
scalar abilene_nodelay_network.node[7].proactive_component 	avg_time[7].proactive_component 	0
scalar abilene_nodelay_network.node[8].core_layer 	interests[8] 	62977714
scalar abilene_nodelay_network.node[8].core_layer 	repo_load[8] 	18467900
scalar abilene_nodelay_network.node[8].core_layer 	data[8] 	25488030
scalar abilene_nodelay_network.node[8].core_layer 	slots_sent[face$o[1]->client[8]] 	14179055771
scalar abilene_nodelay_network.node[8].core_layer 	slots_sent[face$o[2]->node[2]] 	5406380303
scalar abilene_nodelay_network.node[8].core_layer 	slots_sent[face$o[3]->node[7]] 	5246147932
scalar abilene_nodelay_network.node[8].core_layer 	slots_sent[face$o[4]->node[9]] 	6843044400
scalar abilene_nodelay_network.node[8].content_store 	p_hit[8] 	0.18844967919922
scalar abilene_nodelay_network.node[8].content_store 	hits[8] 	11868130
scalar abilene_nodelay_network.node[8].content_store 	misses[8] 	51109584
scalar abilene_nodelay_network.node[8].content_store 	decision_yes[8] 	13416418
scalar abilene_nodelay_network.node[8].content_store 	decision_no[8] 	30539512
scalar abilene_nodelay_network.node[8].content_store 	decision_ratio[8] 	0.305224300794
scalar abilene_nodelay_network.node[8].proactive_component 	hdistance[8].proactive_component 	2.1028338876556
scalar abilene_nodelay_network.node[8].proactive_component 	downloads[8].proactive_component 	22050980
scalar abilene_nodelay_network.node[8].proactive_component 	avg_time[8].proactive_component 	0
scalar abilene_nodelay_network.node[9].core_layer 	interests[9] 	48008935
scalar abilene_nodelay_network.node[9].core_layer 	repo_load[9] 	19341828
scalar abilene_nodelay_network.node[9].core_layer 	data[9] 	15980393
scalar abilene_nodelay_network.node[9].core_layer 	slots_sent[face$o[1]->client[9]] 	12858787200
scalar abilene_nodelay_network.node[9].core_layer 	slots_sent[face$o[2]->node[10]] 	3952144440
scalar abilene_nodelay_network.node[9].core_layer 	slots_sent[face$o[3]->node[8]] 	5924860901
scalar abilene_nodelay_network.node[9].content_store 	p_hit[9] 	0.20778748789158
scalar abilene_nodelay_network.node[9].content_store 	hits[9] 	9975656
scalar abilene_nodelay_network.node[9].content_store 	misses[9] 	38033279
scalar abilene_nodelay_network.node[9].content_store 	decision_yes[9] 	8472956
scalar abilene_nodelay_network.node[9].content_store 	decision_no[9] 	26849265
scalar abilene_nodelay_network.node[9].content_store 	decision_ratio[9] 	0.23987608253739
scalar abilene_nodelay_network.node[9].proactive_component 	hdistance[9].proactive_component 	2.0213165929783
scalar abilene_nodelay_network.node[9].proactive_component 	downloads[9].proactive_component 	17573024
scalar abilene_nodelay_network.node[9].proactive_component 	avg_time[9].proactive_component 	0
scalar abilene_nodelay_network.node[10].core_layer 	interests[10] 	45165372
scalar abilene_nodelay_network.node[10].core_layer 	repo_load[10] 	17972689
scalar abilene_nodelay_network.node[10].core_layer 	data[10] 	14152952
scalar abilene_nodelay_network.node[10].core_layer 	slots_sent[face$o[1]->client[10]] 	14089720919
scalar abilene_nodelay_network.node[10].core_layer 	slots_sent[face$o[2]->node[0]] 	1380591669
scalar abilene_nodelay_network.node[10].core_layer 	slots_sent[face$o[3]->node[1]] 	3890663244
scalar abilene_nodelay_network.node[10].core_layer 	slots_sent[face$o[4]->node[9]] 	3795638952
scalar abilene_nodelay_network.node[10].content_store 	p_hit[10] 	0.24628297094509
scalar abilene_nodelay_network.node[10].content_store 	hits[10] 	11123462
scalar abilene_nodelay_network.node[10].content_store 	misses[10] 	34041910
scalar abilene_nodelay_network.node[10].content_store 	decision_yes[10] 	7496158
scalar abilene_nodelay_network.node[10].content_store 	decision_no[10] 	24629483
scalar abilene_nodelay_network.node[10].content_store 	decision_ratio[10] 	0.23333878380824
scalar abilene_nodelay_network.node[10].proactive_component 	hdistance[10].proactive_component 	2.038349231505
scalar abilene_nodelay_network.node[10].proactive_component 	downloads[10].proactive_component 	15607979
scalar abilene_nodelay_network.node[10].proactive_component 	avg_time[10].proactive_component 	0
scalar abilene_nodelay_network.client[0] 	hdistance[0].real 	1.1754008476857
scalar abilene_nodelay_network.client[0] 	downloads[0].real 	18002661
scalar abilene_nodelay_network.client[0] 	avg_time[0].real 	0
scalar abilene_nodelay_network.client[1] 	hdistance[1].real 	1.0571030608927
scalar abilene_nodelay_network.client[1] 	downloads[1].real 	17990209
scalar abilene_nodelay_network.client[1] 	avg_time[1].real 	0
scalar abilene_nodelay_network.client[2] 	hdistance[2].real 	0.95361037807314
scalar abilene_nodelay_network.client[2] 	downloads[2].real 	17997021
scalar abilene_nodelay_network.client[2] 	avg_time[2].real 	0
scalar abilene_nodelay_network.client[3] 	hdistance[3].real 	0.96498184427336
scalar abilene_nodelay_network.client[3] 	downloads[3].real 	17998178
scalar abilene_nodelay_network.client[3] 	avg_time[3].real 	0
scalar abilene_nodelay_network.client[4] 	hdistance[4].real 	1.1102603013334
scalar abilene_nodelay_network.client[4] 	downloads[4].real 	17994491
scalar abilene_nodelay_network.client[4] 	avg_time[4].real 	0
scalar abilene_nodelay_network.client[5] 	hdistance[5].real 	1.1495085640923
scalar abilene_nodelay_network.client[5] 	downloads[5].real 	17999397
scalar abilene_nodelay_network.client[5] 	avg_time[5].real 	0
scalar abilene_nodelay_network.client[6] 	hdistance[6].real 	1.1031539726722
scalar abilene_nodelay_network.client[6] 	downloads[6].real 	18007702
scalar abilene_nodelay_network.client[6] 	avg_time[6].real 	0
scalar abilene_nodelay_network.client[7] 	hdistance[7].real 	0.97189127756312
scalar abilene_nodelay_network.client[7] 	downloads[7].real 	18004269
scalar abilene_nodelay_network.client[7] 	avg_time[7].real 	0
scalar abilene_nodelay_network.client[8] 	hdistance[8].real 	0.94337353300498
scalar abilene_nodelay_network.client[8] 	downloads[8].real 	17997079
scalar abilene_nodelay_network.client[8] 	avg_time[8].real 	0
scalar abilene_nodelay_network.client[9] 	hdistance[9].real 	1.1121703104201
scalar abilene_nodelay_network.client[9] 	downloads[9].real 	18001858
scalar abilene_nodelay_network.client[9] 	avg_time[9].real 	0
scalar abilene_nodelay_network.client[10] 	hdistance[10].real 	1.0896794534925
scalar abilene_nodelay_network.client[10] 	downloads[10].real 	17999541
scalar abilene_nodelay_network.client[10] 	avg_time[10].real 	0
