version 2
run General-9-20150721-04:29:15-25246
attr C 1e6
attr D lce
attr F spr
attr R always_highq
attr a 1
attr brates 0.3_0.7_1.5_2.5_3.5
attr configname General
attr ctlg 1e8
attr datetime 20150721-04:29:15
attr experiment General
attr inifile omnetpp.ini
attr iterationvars "$net=abilene_nodelay, $rep=4, $lambda=100, $a=1, $ctlg=1e8, $brates=0.3_0.7_1.5_2.5_3.5, $F=spr, $ttl=1000, $D=lce, $R=always_highq, $C=1e6, $window=60, $variance=0.05, $mytime=180000"
attr iterationvars2 "$net=abilene_nodelay, $rep=4, $lambda=100, $a=1, $ctlg=1e8, $brates=0.3_0.7_1.5_2.5_3.5, $F=spr, $ttl=1000, $D=lce, $R=always_highq, $C=1e6, $window=60, $variance=0.05, $mytime=180000, $repetition=0"
attr lambda 100
attr measurement "$net=abilene_nodelay, $rep=4, $lambda=100, $a=1, $ctlg=1e8, $brates=0.3_0.7_1.5_2.5_3.5, $F=spr, $ttl=1000, $D=lce, $R=always_highq, $C=1e6, $window=60, $variance=0.05, $mytime=180000"
attr mytime 180000
attr net abilene_nodelay
attr network networks.${net=abilene_nodelay}_network
attr processid 25246
attr rep 4
attr repetition 0
attr replication #0
attr resultdir results
attr runnumber 9
attr seedset 4
attr ttl 1000
attr variance 0.05
attr window 60

scalar . 	C 	1e6
scalar . 	a 	1
scalar . 	ctlg 	1e8
scalar . 	lambda 	100
scalar . 	mytime 	180000
scalar . 	rep 	4
scalar . 	ttl 	1000
scalar . 	variance 	0.05
scalar . 	window 	60
scalar abilene_nodelay_network.content_distribution 	repo-0 	2
scalar abilene_nodelay_network.content_distribution 	repo-1 	0
scalar abilene_nodelay_network.content_distribution 	repo-2 	10
scalar abilene_nodelay_network.content_distribution 	repo-3 	6
scalar abilene_nodelay_network.content_distribution 	repo-4 	4
scalar abilene_nodelay_network.content_distribution 	repo-5 	9
scalar abilene_nodelay_network.content_distribution 	repo-6 	3
scalar abilene_nodelay_network.content_distribution 	repo-7 	5
scalar abilene_nodelay_network.content_distribution 	repo-8 	1
scalar abilene_nodelay_network.content_distribution 	repo-9 	8
scalar abilene_nodelay_network.content_distribution 	repo-10 	7
scalar abilene_nodelay_network.content_distribution 	client-0 	3
scalar abilene_nodelay_network.content_distribution 	client-1 	5
scalar abilene_nodelay_network.content_distribution 	client-2 	8
scalar abilene_nodelay_network.content_distribution 	client-3 	10
scalar abilene_nodelay_network.content_distribution 	client-4 	1
scalar abilene_nodelay_network.content_distribution 	client-5 	7
scalar abilene_nodelay_network.content_distribution 	client-6 	6
scalar abilene_nodelay_network.content_distribution 	client-7 	0
scalar abilene_nodelay_network.content_distribution 	client-8 	4
scalar abilene_nodelay_network.content_distribution 	client-9 	9
scalar abilene_nodelay_network.content_distribution 	client-10 	2
scalar abilene_nodelay_network.content_distribution 	repo-0_card 	9084698
scalar abilene_nodelay_network.content_distribution 	repo-0_price 	0
scalar abilene_nodelay_network.content_distribution 	repo-1_card 	9088682
scalar abilene_nodelay_network.content_distribution 	repo-1_price 	0
scalar abilene_nodelay_network.content_distribution 	repo-2_card 	9091335
scalar abilene_nodelay_network.content_distribution 	repo-2_price 	0
scalar abilene_nodelay_network.content_distribution 	repo-3_card 	9090115
scalar abilene_nodelay_network.content_distribution 	repo-3_price 	0
scalar abilene_nodelay_network.content_distribution 	repo-4_card 	9089712
scalar abilene_nodelay_network.content_distribution 	repo-4_price 	0
scalar abilene_nodelay_network.content_distribution 	repo-5_card 	9088758
scalar abilene_nodelay_network.content_distribution 	repo-5_price 	0
scalar abilene_nodelay_network.content_distribution 	repo-6_card 	9097388
scalar abilene_nodelay_network.content_distribution 	repo-6_price 	0
scalar abilene_nodelay_network.content_distribution 	repo-7_card 	9089446
scalar abilene_nodelay_network.content_distribution 	repo-7_price 	0
scalar abilene_nodelay_network.content_distribution 	repo-8_card 	9088642
scalar abilene_nodelay_network.content_distribution 	repo-8_price 	0
scalar abilene_nodelay_network.content_distribution 	repo-9_card 	9096856
scalar abilene_nodelay_network.content_distribution 	repo-9_price 	0
scalar abilene_nodelay_network.content_distribution 	repo-10_card 	9094368
scalar abilene_nodelay_network.content_distribution 	repo-10_price 	0
scalar abilene_nodelay_network.statistics 	stabilization_time 	30552.9
scalar abilene_nodelay_network.statistics 	p_hit 	0.19318082100431
scalar abilene_nodelay_network.statistics 	interests 	59573103.272727
scalar abilene_nodelay_network.statistics 	data 	23813231.454545
scalar abilene_nodelay_network.statistics 	hdistance 	1.057447518215
scalar abilene_nodelay_network.statistics 	avg_time 	0
scalar abilene_nodelay_network.statistics 	downloads 	197985076
scalar abilene_nodelay_network.statistics 	total_cost 	0
scalar abilene_nodelay_network.statistics 	total_replicas 	100000000
scalar abilene_nodelay_network.statistics 	"representations_downloaded 0.360597:0:0:0:0.639403:" 	0
scalar abilene_nodelay_network.statistics 	"slots_per_representation 100:233:500:833:1167:" 	0
scalar abilene_nodelay_network.statistics 	inner_hit 	0.0091388150892747
scalar abilene_nodelay_network.statistics 	execution_time 	14386
scalar abilene_nodelay_network.node[0].core_layer 	interests[0] 	39093702
scalar abilene_nodelay_network.node[0].core_layer 	repo_load[0] 	19073324
scalar abilene_nodelay_network.node[0].core_layer 	data[0] 	10120688
scalar abilene_nodelay_network.node[0].core_layer 	slots_sent[face$o[1]->client[0]] 	13279338268
scalar abilene_nodelay_network.node[0].core_layer 	slots_sent[face$o[2]->node[1]] 	4553652481
scalar abilene_nodelay_network.node[0].core_layer 	slots_sent[face$o[3]->node[10]] 	1297416869
scalar abilene_nodelay_network.node[0].content_store 	p_hit[0] 	0.2532297913357
scalar abilene_nodelay_network.node[0].content_store 	hits[0] 	9899690
scalar abilene_nodelay_network.node[0].content_store 	misses[0] 	29194012
scalar abilene_nodelay_network.node[0].content_store 	decision_yes[0] 	5489801
scalar abilene_nodelay_network.node[0].content_store 	decision_no[0] 	23704211
scalar abilene_nodelay_network.node[0].content_store 	decision_ratio[0] 	0.18804544575785
scalar abilene_nodelay_network.node[0].proactive_component 	hdistance[0].proactive_component 	2.1258952485033
scalar abilene_nodelay_network.node[0].proactive_component 	downloads[0].proactive_component 	13979638
scalar abilene_nodelay_network.node[0].proactive_component 	avg_time[0].proactive_component 	0
scalar abilene_nodelay_network.node[1].core_layer 	interests[1] 	71177558
scalar abilene_nodelay_network.node[1].core_layer 	repo_load[1] 	18652437
scalar abilene_nodelay_network.node[1].core_layer 	data[1] 	31168780
scalar abilene_nodelay_network.node[1].core_layer 	slots_sent[face$o[1]->client[1]] 	13684507589
scalar abilene_nodelay_network.node[1].core_layer 	slots_sent[face$o[2]->node[0]] 	5488616011
scalar abilene_nodelay_network.node[1].core_layer 	slots_sent[face$o[3]->node[10]] 	4156646256
scalar abilene_nodelay_network.node[1].core_layer 	slots_sent[face$o[4]->node[2]] 	11255748964
scalar abilene_nodelay_network.node[1].content_store 	p_hit[1] 	0.16136871399831
scalar abilene_nodelay_network.node[1].content_store 	hits[1] 	11485831
scalar abilene_nodelay_network.node[1].content_store 	misses[1] 	59691727
scalar abilene_nodelay_network.node[1].content_store 	decision_yes[1] 	16309238
scalar abilene_nodelay_network.node[1].content_store 	decision_no[1] 	33511979
scalar abilene_nodelay_network.node[1].content_store 	decision_ratio[1] 	0.32735527114884
scalar abilene_nodelay_network.node[1].proactive_component 	hdistance[1].proactive_component 	2.3208394559172
scalar abilene_nodelay_network.node[1].proactive_component 	downloads[1].proactive_component 	25559746
scalar abilene_nodelay_network.node[1].proactive_component 	avg_time[1].proactive_component 	0
scalar abilene_nodelay_network.node[2].core_layer 	interests[2] 	95450169
scalar abilene_nodelay_network.node[2].core_layer 	repo_load[2] 	18427627
scalar abilene_nodelay_network.node[2].core_layer 	data[2] 	47079767
scalar abilene_nodelay_network.node[2].core_layer 	slots_sent[face$o[1]->client[2]] 	14008266311
scalar abilene_nodelay_network.node[2].core_layer 	slots_sent[face$o[2]->node[1]] 	12075894234
scalar abilene_nodelay_network.node[2].core_layer 	slots_sent[face$o[3]->node[3]] 	14484420819
scalar abilene_nodelay_network.node[2].core_layer 	slots_sent[face$o[4]->node[8]] 	5725722403
scalar abilene_nodelay_network.node[2].content_store 	p_hit[2] 	0.13148258543157
scalar abilene_nodelay_network.node[2].content_store 	hits[2] 	12550035
scalar abilene_nodelay_network.node[2].content_store 	misses[2] 	82900134
scalar abilene_nodelay_network.node[2].content_store 	decision_yes[2] 	24561761
scalar abilene_nodelay_network.node[2].content_store 	decision_no[2] 	40945633
scalar abilene_nodelay_network.node[2].content_store 	decision_ratio[2] 	0.3749463915478
scalar abilene_nodelay_network.node[2].proactive_component 	hdistance[2].proactive_component 	2.3425895334411
scalar abilene_nodelay_network.node[2].proactive_component 	downloads[2].proactive_component 	34299028
scalar abilene_nodelay_network.node[2].proactive_component 	avg_time[2].proactive_component 	0
scalar abilene_nodelay_network.node[3].core_layer 	interests[3] 	89331362
scalar abilene_nodelay_network.node[3].core_layer 	repo_load[3] 	18298955
scalar abilene_nodelay_network.node[3].core_layer 	data[3] 	43108081
scalar abilene_nodelay_network.node[3].core_layer 	slots_sent[face$o[1]->client[3]] 	14062419916
scalar abilene_nodelay_network.node[3].core_layer 	slots_sent[face$o[2]->node[2]] 	14256511570
scalar abilene_nodelay_network.node[3].core_layer 	slots_sent[face$o[3]->node[4]] 	8909899826
scalar abilene_nodelay_network.node[3].core_layer 	slots_sent[face$o[4]->node[7]] 	6376695206
scalar abilene_nodelay_network.node[3].content_store 	p_hit[3] 	0.13920019488788
scalar abilene_nodelay_network.node[3].content_store 	hits[3] 	12434943
scalar abilene_nodelay_network.node[3].content_store 	misses[3] 	76896419
scalar abilene_nodelay_network.node[3].content_store 	decision_yes[3] 	22536326
scalar abilene_nodelay_network.node[3].content_store 	decision_no[3] 	38870710
scalar abilene_nodelay_network.node[3].content_store 	decision_ratio[3] 	0.36699908460001
scalar abilene_nodelay_network.node[3].proactive_component 	hdistance[3].proactive_component 	2.3541567348237
scalar abilene_nodelay_network.node[3].proactive_component 	downloads[3].proactive_component 	31955298
scalar abilene_nodelay_network.node[3].proactive_component 	avg_time[3].proactive_component 	0
scalar abilene_nodelay_network.node[4].core_layer 	interests[4] 	52815276
scalar abilene_nodelay_network.node[4].core_layer 	repo_load[4] 	17457655
scalar abilene_nodelay_network.node[4].core_layer 	data[4] 	19547256
scalar abilene_nodelay_network.node[4].core_layer 	slots_sent[face$o[1]->client[4]] 	14201701113
scalar abilene_nodelay_network.node[4].core_layer 	slots_sent[face$o[2]->node[3]] 	7958538451
scalar abilene_nodelay_network.node[4].core_layer 	slots_sent[face$o[3]->node[5]] 	4776744208
scalar abilene_nodelay_network.node[4].content_store 	p_hit[4] 	0.21630806208416
scalar abilene_nodelay_network.node[4].content_store 	hits[4] 	11424370
scalar abilene_nodelay_network.node[4].content_store 	misses[4] 	41390906
scalar abilene_nodelay_network.node[4].content_store 	decision_yes[4] 	10356850
scalar abilene_nodelay_network.node[4].content_store 	decision_no[4] 	26648061
scalar abilene_nodelay_network.node[4].content_store 	decision_ratio[4] 	0.27987771677116
scalar abilene_nodelay_network.node[4].proactive_component 	hdistance[4].proactive_component 	2.3161325862778
scalar abilene_nodelay_network.node[4].proactive_component 	downloads[4].proactive_component 	18305484
scalar abilene_nodelay_network.node[4].proactive_component 	avg_time[4].proactive_component 	0
scalar abilene_nodelay_network.node[5].core_layer 	interests[5] 	40593215
scalar abilene_nodelay_network.node[5].core_layer 	repo_load[5] 	16258554
scalar abilene_nodelay_network.node[5].core_layer 	data[5] 	12098159
scalar abilene_nodelay_network.node[5].core_layer 	slots_sent[face$o[1]->client[5]] 	14567917255
scalar abilene_nodelay_network.node[5].core_layer 	slots_sent[face$o[2]->node[4]] 	4095584724
scalar abilene_nodelay_network.node[5].core_layer 	slots_sent[face$o[3]->node[6]] 	3061103888
scalar abilene_nodelay_network.node[5].content_store 	p_hit[5] 	0.27754258932189
scalar abilene_nodelay_network.node[5].content_store 	hits[5] 	11266346
scalar abilene_nodelay_network.node[5].content_store 	misses[5] 	29326869
scalar abilene_nodelay_network.node[5].content_store 	decision_yes[5] 	6507450
scalar abilene_nodelay_network.node[5].content_store 	decision_no[5] 	21849263
scalar abilene_nodelay_network.node[5].content_store 	decision_ratio[5] 	0.22948534267706
scalar abilene_nodelay_network.node[5].proactive_component 	hdistance[5].proactive_component 	2.2507802763017
scalar abilene_nodelay_network.node[5].proactive_component 	downloads[5].proactive_component 	13568591
scalar abilene_nodelay_network.node[5].proactive_component 	avg_time[5].proactive_component 	0
scalar abilene_nodelay_network.node[6].core_layer 	interests[6] 	46375381
scalar abilene_nodelay_network.node[6].core_layer 	repo_load[6] 	16365689
scalar abilene_nodelay_network.node[6].core_layer 	data[6] 	15888910
scalar abilene_nodelay_network.node[6].core_layer 	slots_sent[face$o[1]->client[6]] 	14460815429
scalar abilene_nodelay_network.node[6].core_layer 	slots_sent[face$o[2]->node[5]] 	3376520842
scalar abilene_nodelay_network.node[6].core_layer 	slots_sent[face$o[3]->node[7]] 	6436560376
scalar abilene_nodelay_network.node[6].content_store 	p_hit[6] 	0.24621701760251
scalar abilene_nodelay_network.node[6].content_store 	hits[6] 	11418408
scalar abilene_nodelay_network.node[6].content_store 	misses[6] 	34956973
scalar abilene_nodelay_network.node[6].content_store 	decision_yes[6] 	8449613
scalar abilene_nodelay_network.node[6].content_store 	decision_no[6] 	23804986
scalar abilene_nodelay_network.node[6].content_store 	decision_ratio[6] 	0.26196614628506
scalar abilene_nodelay_network.node[6].proactive_component 	hdistance[6].proactive_component 	2.2261182008095
scalar abilene_nodelay_network.node[6].proactive_component 	downloads[6].proactive_component 	15770535
scalar abilene_nodelay_network.node[6].proactive_component 	avg_time[6].proactive_component 	0
scalar abilene_nodelay_network.node[7].core_layer 	interests[7] 	65580735
scalar abilene_nodelay_network.node[7].core_layer 	repo_load[7] 	18400439
scalar abilene_nodelay_network.node[7].core_layer 	data[7] 	27308465
scalar abilene_nodelay_network.node[7].core_layer 	slots_sent[face$o[1]->client[7]] 	14125780758
scalar abilene_nodelay_network.node[7].core_layer 	slots_sent[face$o[2]->node[3]] 	5914108672
scalar abilene_nodelay_network.node[7].core_layer 	slots_sent[face$o[3]->node[6]] 	7543524183
scalar abilene_nodelay_network.node[7].core_layer 	slots_sent[face$o[4]->node[8]] 	5218861364
scalar abilene_nodelay_network.node[7].content_store 	p_hit[7] 	0.18114164167266
scalar abilene_nodelay_network.node[7].content_store 	hits[7] 	11879402
scalar abilene_nodelay_network.node[7].content_store 	misses[7] 	53701333
scalar abilene_nodelay_network.node[7].content_store 	decision_yes[7] 	14366190
scalar abilene_nodelay_network.node[7].content_store 	decision_no[7] 	31342714
scalar abilene_nodelay_network.node[7].content_store 	decision_ratio[7] 	0.31429740691223
scalar abilene_nodelay_network.node[7].proactive_component 	hdistance[7].proactive_component 	2.1889761748296
scalar abilene_nodelay_network.node[7].proactive_component 	downloads[7].proactive_component 	23065061
scalar abilene_nodelay_network.node[7].proactive_component 	avg_time[7].proactive_component 	0
scalar abilene_nodelay_network.node[8].core_layer 	interests[8] 	63145752
scalar abilene_nodelay_network.node[8].core_layer 	repo_load[8] 	18784594
scalar abilene_nodelay_network.node[8].core_layer 	data[8] 	25502588
scalar abilene_nodelay_network.node[8].core_layer 	slots_sent[face$o[1]->client[8]] 	14004713431
scalar abilene_nodelay_network.node[8].core_layer 	slots_sent[face$o[2]->node[2]] 	5403115153
scalar abilene_nodelay_network.node[8].core_layer 	slots_sent[face$o[3]->node[7]] 	5246315648
scalar abilene_nodelay_network.node[8].core_layer 	slots_sent[face$o[4]->node[9]] 	6841419964
scalar abilene_nodelay_network.node[8].content_store 	p_hit[8] 	0.18527835411636
scalar abilene_nodelay_network.node[8].content_store 	hits[8] 	11699541
scalar abilene_nodelay_network.node[8].content_store 	misses[8] 	51446211
scalar abilene_nodelay_network.node[8].content_store 	decision_yes[8] 	13424871
scalar abilene_nodelay_network.node[8].content_store 	decision_no[8] 	30862311
scalar abilene_nodelay_network.node[8].content_store 	decision_ratio[8] 	0.30313220199922
scalar abilene_nodelay_network.node[8].proactive_component 	hdistance[8].proactive_component 	2.0937701008395
scalar abilene_nodelay_network.node[8].proactive_component 	downloads[8].proactive_component 	22251869
scalar abilene_nodelay_network.node[8].proactive_component 	avg_time[8].proactive_component 	0
scalar abilene_nodelay_network.node[9].core_layer 	interests[9] 	47003247
scalar abilene_nodelay_network.node[9].core_layer 	repo_load[9] 	17312603
scalar abilene_nodelay_network.node[9].core_layer 	data[9] 	15978857
scalar abilene_nodelay_network.node[9].core_layer 	slots_sent[face$o[1]->client[9]] 	13946120252
scalar abilene_nodelay_network.node[9].core_layer 	slots_sent[face$o[2]->node[10]] 	3953630299
scalar abilene_nodelay_network.node[9].core_layer 	slots_sent[face$o[3]->node[8]] 	5930012390
scalar abilene_nodelay_network.node[9].content_store 	p_hit[9] 	0.23397389971803
scalar abilene_nodelay_network.node[9].content_store 	hits[9] 	10997533
scalar abilene_nodelay_network.node[9].content_store 	misses[9] 	36005714
scalar abilene_nodelay_network.node[9].content_store 	decision_yes[9] 	8471445
scalar abilene_nodelay_network.node[9].content_store 	decision_no[9] 	24820015
scalar abilene_nodelay_network.node[9].content_store 	decision_ratio[9] 	0.25446300642868
scalar abilene_nodelay_network.node[9].proactive_component 	hdistance[9].proactive_component 	2.0953481117211
scalar abilene_nodelay_network.node[9].proactive_component 	downloads[9].proactive_component 	16386722
scalar abilene_nodelay_network.node[9].proactive_component 	avg_time[9].proactive_component 	0
scalar abilene_nodelay_network.node[10].core_layer 	interests[10] 	44737739
scalar abilene_nodelay_network.node[10].core_layer 	repo_load[10] 	17143850
scalar abilene_nodelay_network.node[10].core_layer 	data[10] 	14143995
scalar abilene_nodelay_network.node[10].core_layer 	slots_sent[face$o[1]->client[10]] 	14530795075
scalar abilene_nodelay_network.node[10].core_layer 	slots_sent[face$o[2]->node[0]] 	1381070456
scalar abilene_nodelay_network.node[10].core_layer 	slots_sent[face$o[3]->node[1]] 	3889288231
scalar abilene_nodelay_network.node[10].core_layer 	slots_sent[face$o[4]->node[9]] 	3795497551
scalar abilene_nodelay_network.node[10].content_store 	p_hit[10] 	0.25786041623606
scalar abilene_nodelay_network.node[10].content_store 	hits[10] 	11536092
scalar abilene_nodelay_network.node[10].content_store 	misses[10] 	33201647
scalar abilene_nodelay_network.node[10].content_store 	decision_yes[10] 	7491372
scalar abilene_nodelay_network.node[10].content_store 	decision_no[10] 	23796473
scalar abilene_nodelay_network.node[10].content_store 	decision_ratio[10] 	0.2394339399214
scalar abilene_nodelay_network.node[10].proactive_component 	hdistance[10].proactive_component 	2.0720236908886
scalar abilene_nodelay_network.node[10].proactive_component 	downloads[10].proactive_component 	15117373
scalar abilene_nodelay_network.node[10].proactive_component 	avg_time[10].proactive_component 	0
scalar abilene_nodelay_network.client[0] 	hdistance[0].real 	1.2225118419957
scalar abilene_nodelay_network.client[0] 	downloads[0].real 	17999078
scalar abilene_nodelay_network.client[0] 	avg_time[0].real 	0
scalar abilene_nodelay_network.client[1] 	hdistance[1].real 	1.0690615815981
scalar abilene_nodelay_network.client[1] 	downloads[1].real 	17997633
scalar abilene_nodelay_network.client[1] 	avg_time[1].real 	0
scalar abilene_nodelay_network.client[2] 	hdistance[2].real 	0.9464731450802
scalar abilene_nodelay_network.client[2] 	downloads[2].real 	18001506
scalar abilene_nodelay_network.client[2] 	avg_time[2].real 	0
scalar abilene_nodelay_network.client[3] 	hdistance[3].real 	0.97143040013085
scalar abilene_nodelay_network.client[3] 	downloads[3].real 	17998712
scalar abilene_nodelay_network.client[3] 	avg_time[3].real 	0
scalar abilene_nodelay_network.client[4] 	hdistance[4].real 	1.1065476434261
scalar abilene_nodelay_network.client[4] 	downloads[4].real 	17994917
scalar abilene_nodelay_network.client[4] 	avg_time[4].real 	0
scalar abilene_nodelay_network.client[5] 	hdistance[5].real 	1.1587455157661
scalar abilene_nodelay_network.client[5] 	downloads[5].real 	17998058
scalar abilene_nodelay_network.client[5] 	avg_time[5].real 	0
scalar abilene_nodelay_network.client[6] 	hdistance[6].real 	1.1062952452173
scalar abilene_nodelay_network.client[6] 	downloads[6].real 	17999140
scalar abilene_nodelay_network.client[6] 	avg_time[6].real 	0
scalar abilene_nodelay_network.client[7] 	hdistance[7].real 	0.97616764462997
scalar abilene_nodelay_network.client[7] 	downloads[7].real 	17999312
scalar abilene_nodelay_network.client[7] 	avg_time[7].real 	0
scalar abilene_nodelay_network.client[8] 	hdistance[8].real 	0.95296878542876
scalar abilene_nodelay_network.client[8] 	downloads[8].real 	18002682
scalar abilene_nodelay_network.client[8] 	avg_time[8].real 	0
scalar abilene_nodelay_network.client[9] 	hdistance[9].real 	1.055046975421
scalar abilene_nodelay_network.client[9] 	downloads[9].real 	18001861
scalar abilene_nodelay_network.client[9] 	avg_time[9].real 	0
scalar abilene_nodelay_network.client[10] 	hdistance[10].real 	1.0666739216713
scalar abilene_nodelay_network.client[10] 	downloads[10].real 	17992177
scalar abilene_nodelay_network.client[10] 	avg_time[10].real 	0
