version 2
run General-3-20141030-18:28:45-22412
attr D costaware0.01
attr F nrr
attr R lru
attr a 1
attr configname General
attr csize 1e3
attr ctlg 1e5
attr datetime 20141030-18:28:45
attr experiment General
attr inifile omnetpp.ini
attr iterationvars "$rep=1, $lambda=100, $a=1, $ctlg=1e5, $F=nrr, $ttl=10, $D=costaware0.01, $R=lru, $csize=1e3, $window=60, $variance=0.05, $mytime=1800, $kappa=1, $priceratiovalue=10, $pricebits=0"
attr iterationvars2 "$rep=1, $lambda=100, $a=1, $ctlg=1e5, $F=nrr, $ttl=10, $D=costaware0.01, $R=lru, $csize=1e3, $window=60, $variance=0.05, $mytime=1800, $kappa=1, $priceratiovalue=10, $pricebits=0, $repetition=0"
attr kappa 1
attr lambda 100
attr measurement "$rep=1, $lambda=100, $a=1, $ctlg=1e5, $F=nrr, $ttl=10, $D=costaware0.01, $R=lru, $csize=1e3, $window=60, $variance=0.05, $mytime=1800, $kappa=1, $priceratiovalue=10, $pricebits=0"
attr mytime 1800
attr network networks.ws${rep}_network
attr pricebits 0
attr priceratiovalue 10
attr processid 22412
attr rep 1
attr repetition 0
attr replication #0
attr resultdir results
attr runnumber 3
attr seedset 1
attr ttl 10
attr variance 0.05
attr window 60

scalar . 	a 	1
scalar . 	csize 	1e3
scalar . 	ctlg 	1e5
scalar . 	kappa 	1
scalar . 	lambda 	100
scalar . 	mytime 	1800
scalar . 	pricebits 	0
scalar . 	priceratiovalue 	10
scalar . 	rep 	1
scalar . 	ttl 	10
scalar . 	variance 	0.05
scalar . 	window 	60
scalar ws1_network.content_distribution 	repo-0 	14
scalar ws1_network.content_distribution 	repo-1 	5
scalar ws1_network.content_distribution 	repo-2 	1
scalar ws1_network.content_distribution 	client-0 	8
scalar ws1_network.content_distribution 	client-1 	18
scalar ws1_network.content_distribution 	client-2 	9
scalar ws1_network.content_distribution 	repo-0_card 	33398
scalar ws1_network.content_distribution 	repo-0_price 	0
scalar ws1_network.content_distribution 	repo-1_card 	33040
scalar ws1_network.content_distribution 	repo-1_price 	1
scalar ws1_network.content_distribution 	repo-2_card 	33562
scalar ws1_network.content_distribution 	repo-2_price 	10
scalar ws1_network.statistics 	repo_popularity[0] 	0.42710281340035
scalar ws1_network.statistics 	repo_popularity[1] 	0.27050451919503
scalar ws1_network.statistics 	repo_popularity[2] 	0.30239266740463
scalar ws1_network.statistics 	stabilization_time 	36060
scalar ws1_network.statistics 	p_hit 	0.079501060258401
scalar ws1_network.statistics 	interests 	79397.454545455
scalar ws1_network.statistics 	data 	54894.590909091
scalar ws1_network.statistics 	hdistance 	3.0129200817382
scalar ws1_network.statistics 	avg_time 	0.01170635612
scalar ws1_network.statistics 	downloads 	531787
scalar ws1_network.statistics 	total_cost 	932840
scalar ws1_network.statistics 	total_replicas 	100000
scalar ws1_network.statistics 	inner_hit 	0.26381427150344
scalar ws1_network.statistics 	interests_sent 	539054
scalar ws1_network.node[0].core_layer 	interests[0] 	5127
scalar ws1_network.node[0].core_layer 	data[0] 	5127
scalar ws1_network.node[0].core_layer 	repo_int[0] 	391494
scalar ws1_network.node[0].content_store 	p_hit[0] 	0
scalar ws1_network.node[0].content_store 	hits[0] 	0
scalar ws1_network.node[0].content_store 	misses[0] 	5127
scalar ws1_network.node[0].content_store 	decision_yes[0] 	0
scalar ws1_network.node[0].content_store 	decision_no[0] 	5127
scalar ws1_network.node[0].content_store 	decision_ratio[0] 	0
scalar ws1_network.node[0].content_store 	correction_factor[0] 	0.0027225701061802
scalar ws1_network.node[0].content_store 	kappa[0] 	1
scalar ws1_network.node[1].core_layer 	interests[1] 	110946
scalar ws1_network.node[1].core_layer 	repo_load[1] 	84895
scalar ws1_network.node[1].core_layer 	data[1] 	0
scalar ws1_network.node[1].content_store 	p_hit[1] 	0.23480792457592
scalar ws1_network.node[1].content_store 	hits[1] 	26051
scalar ws1_network.node[1].content_store 	misses[1] 	84895
scalar ws1_network.node[1].content_store 	decision_yes[1] 	2310
scalar ws1_network.node[1].content_store 	decision_no[1] 	82585
scalar ws1_network.node[1].content_store 	decision_ratio[1] 	0.02721008304376
scalar ws1_network.node[1].content_store 	correction_factor[1] 	0.0027225701061802
scalar ws1_network.node[1].content_store 	kappa[1] 	1
scalar ws1_network.node[2].core_layer 	interests[2] 	38399
scalar ws1_network.node[2].core_layer 	data[2] 	34568
scalar ws1_network.node[2].content_store 	p_hit[2] 	0.099768223130811
scalar ws1_network.node[2].content_store 	hits[2] 	3831
scalar ws1_network.node[2].content_store 	misses[2] 	34568
scalar ws1_network.node[2].content_store 	decision_yes[2] 	712
scalar ws1_network.node[2].content_store 	decision_no[2] 	33856
scalar ws1_network.node[2].content_store 	decision_ratio[2] 	0.020597084008331
scalar ws1_network.node[2].content_store 	correction_factor[2] 	0.0027225701061802
scalar ws1_network.node[2].content_store 	kappa[2] 	1
scalar ws1_network.node[3].core_layer 	interests[3] 	52963
scalar ws1_network.node[3].core_layer 	data[3] 	46450
scalar ws1_network.node[3].content_store 	p_hit[3] 	0.1229537601722
scalar ws1_network.node[3].content_store 	hits[3] 	6512
scalar ws1_network.node[3].content_store 	misses[3] 	46451
scalar ws1_network.node[3].content_store 	decision_yes[3] 	767
scalar ws1_network.node[3].content_store 	decision_no[3] 	45683
scalar ws1_network.node[3].content_store 	decision_ratio[3] 	0.016512378902045
scalar ws1_network.node[3].content_store 	correction_factor[3] 	0.0027225701061802
scalar ws1_network.node[3].content_store 	kappa[3] 	1
scalar ws1_network.node[4].core_layer 	interests[4] 	171819
scalar ws1_network.node[4].core_layer 	data[4] 	158820
scalar ws1_network.node[4].content_store 	p_hit[4] 	0.075655195292721
scalar ws1_network.node[4].content_store 	hits[4] 	12999
scalar ws1_network.node[4].content_store 	misses[4] 	158820
scalar ws1_network.node[4].content_store 	decision_yes[4] 	867
scalar ws1_network.node[4].content_store 	decision_no[4] 	157953
scalar ws1_network.node[4].content_store 	decision_ratio[4] 	0.0054590102002267
scalar ws1_network.node[4].content_store 	correction_factor[4] 	0.0027225701061802
scalar ws1_network.node[4].content_store 	kappa[4] 	1
scalar ws1_network.node[5].core_layer 	interests[5] 	261481
scalar ws1_network.node[5].core_layer 	repo_load[5] 	83890
scalar ws1_network.node[5].core_layer 	data[5] 	147694
scalar ws1_network.node[5].content_store 	p_hit[5] 	0.10886833077738
scalar ws1_network.node[5].content_store 	hits[5] 	28467
scalar ws1_network.node[5].content_store 	misses[5] 	233014
scalar ws1_network.node[5].content_store 	decision_yes[5] 	260
scalar ws1_network.node[5].content_store 	decision_no[5] 	231324
scalar ws1_network.node[5].content_store 	decision_ratio[5] 	0.0011227027773939
scalar ws1_network.node[5].content_store 	correction_factor[5] 	0.0027225701061802
scalar ws1_network.node[5].content_store 	kappa[5] 	1
scalar ws1_network.node[6].core_layer 	interests[6] 	9103
scalar ws1_network.node[6].core_layer 	data[6] 	9103
scalar ws1_network.node[6].content_store 	p_hit[6] 	0
scalar ws1_network.node[6].content_store 	hits[6] 	0
scalar ws1_network.node[6].content_store 	misses[6] 	9103
scalar ws1_network.node[6].content_store 	decision_yes[6] 	0
scalar ws1_network.node[6].content_store 	decision_no[6] 	9103
scalar ws1_network.node[6].content_store 	decision_ratio[6] 	0
scalar ws1_network.node[6].content_store 	correction_factor[6] 	0.0027225701061802
scalar ws1_network.node[6].content_store 	kappa[6] 	1
scalar ws1_network.node[7].core_layer 	interests[7] 	136924
scalar ws1_network.node[7].core_layer 	data[7] 	125031
scalar ws1_network.node[7].content_store 	p_hit[7] 	0.086843796558675
scalar ws1_network.node[7].content_store 	hits[7] 	11891
scalar ws1_network.node[7].content_store 	misses[7] 	125033
scalar ws1_network.node[7].content_store 	decision_yes[7] 	78
scalar ws1_network.node[7].content_store 	decision_no[7] 	124953
scalar ws1_network.node[7].content_store 	decision_ratio[7] 	0.00062384528636898
scalar ws1_network.node[7].content_store 	correction_factor[7] 	0.0027225701061802
scalar ws1_network.node[7].content_store 	kappa[7] 	1
scalar ws1_network.node[8].core_layer 	interests[8] 	196130
scalar ws1_network.node[8].core_layer 	data[8] 	167832
scalar ws1_network.node[8].content_store 	p_hit[8] 	0.13148931830928
scalar ws1_network.node[8].content_store 	hits[8] 	25789
scalar ws1_network.node[8].content_store 	misses[8] 	170341
scalar ws1_network.node[8].content_store 	decision_yes[8] 	834
scalar ws1_network.node[8].content_store 	decision_no[8] 	166998
scalar ws1_network.node[8].content_store 	decision_ratio[8] 	0.004969254969255
scalar ws1_network.node[8].content_store 	correction_factor[8] 	0.0027225701061802
scalar ws1_network.node[8].content_store 	kappa[8] 	1
scalar ws1_network.node[9].core_layer 	interests[9] 	185536
scalar ws1_network.node[9].core_layer 	data[9] 	173358
scalar ws1_network.node[9].content_store 	p_hit[9] 	0.0507502587099
scalar ws1_network.node[9].content_store 	hits[9] 	9416
scalar ws1_network.node[9].content_store 	misses[9] 	176120
scalar ws1_network.node[9].content_store 	decision_yes[9] 	814
scalar ws1_network.node[9].content_store 	decision_no[9] 	172544
scalar ws1_network.node[9].content_store 	decision_ratio[9] 	0.0046954856424278
scalar ws1_network.node[9].content_store 	correction_factor[9] 	0.0027225701061802
scalar ws1_network.node[9].content_store 	kappa[9] 	1
scalar ws1_network.node[10].core_layer 	interests[10] 	9103
scalar ws1_network.node[10].core_layer 	data[10] 	9103
scalar ws1_network.node[10].content_store 	p_hit[10] 	0
scalar ws1_network.node[10].content_store 	hits[10] 	0
scalar ws1_network.node[10].content_store 	misses[10] 	9103
scalar ws1_network.node[10].content_store 	decision_yes[10] 	0
scalar ws1_network.node[10].content_store 	decision_no[10] 	9103
scalar ws1_network.node[10].content_store 	decision_ratio[10] 	0
scalar ws1_network.node[10].content_store 	correction_factor[10] 	0.0027225701061802
scalar ws1_network.node[10].content_store 	kappa[10] 	1
scalar ws1_network.node[11].core_layer 	interests[11] 	4387
scalar ws1_network.node[11].core_layer 	data[11] 	4387
scalar ws1_network.node[11].content_store 	p_hit[11] 	0
scalar ws1_network.node[11].content_store 	hits[11] 	0
scalar ws1_network.node[11].content_store 	misses[11] 	4387
scalar ws1_network.node[11].content_store 	decision_yes[11] 	0
scalar ws1_network.node[11].content_store 	decision_no[11] 	4387
scalar ws1_network.node[11].content_store 	decision_ratio[11] 	0
scalar ws1_network.node[11].content_store 	correction_factor[11] 	0.0027225701061802
scalar ws1_network.node[11].content_store 	kappa[11] 	1
scalar ws1_network.node[12].core_layer 	interests[12] 	0
scalar ws1_network.node[12].core_layer 	data[12] 	0
scalar ws1_network.node[12].content_store 	p_hit[12] 	-nan
scalar ws1_network.node[12].content_store 	hits[12] 	0
scalar ws1_network.node[12].content_store 	misses[12] 	0
scalar ws1_network.node[12].content_store 	decision_yes[12] 	0
scalar ws1_network.node[12].content_store 	decision_no[12] 	0
scalar ws1_network.node[12].content_store 	decision_ratio[12] 	0
scalar ws1_network.node[12].content_store 	correction_factor[12] 	0.0027225701061802
scalar ws1_network.node[12].content_store 	kappa[12] 	1
scalar ws1_network.node[13].core_layer 	interests[13] 	0
scalar ws1_network.node[13].core_layer 	data[13] 	0
scalar ws1_network.node[13].content_store 	p_hit[13] 	-nan
scalar ws1_network.node[13].content_store 	hits[13] 	0
scalar ws1_network.node[13].content_store 	misses[13] 	0
scalar ws1_network.node[13].content_store 	decision_yes[13] 	0
scalar ws1_network.node[13].content_store 	decision_no[13] 	0
scalar ws1_network.node[13].content_store 	decision_ratio[13] 	0
scalar ws1_network.node[13].content_store 	correction_factor[13] 	0.0027225701061802
scalar ws1_network.node[13].content_store 	kappa[13] 	1
scalar ws1_network.node[14].core_layer 	interests[14] 	222709
scalar ws1_network.node[14].core_layer 	repo_load[14] 	222709
scalar ws1_network.node[14].core_layer 	data[14] 	0
scalar ws1_network.node[14].content_store 	p_hit[14] 	0
scalar ws1_network.node[14].content_store 	hits[14] 	0
scalar ws1_network.node[14].content_store 	misses[14] 	222709
scalar ws1_network.node[14].content_store 	decision_yes[14] 	0
scalar ws1_network.node[14].content_store 	decision_no[14] 	222709
scalar ws1_network.node[14].content_store 	decision_ratio[14] 	0
scalar ws1_network.node[14].content_store 	correction_factor[14] 	0.0027225701061802
scalar ws1_network.node[14].content_store 	kappa[14] 	1
scalar ws1_network.node[15].core_layer 	interests[15] 	0
scalar ws1_network.node[15].core_layer 	data[15] 	0
scalar ws1_network.node[15].content_store 	p_hit[15] 	-nan
scalar ws1_network.node[15].content_store 	hits[15] 	0
scalar ws1_network.node[15].content_store 	misses[15] 	0
scalar ws1_network.node[15].content_store 	decision_yes[15] 	0
scalar ws1_network.node[15].content_store 	decision_no[15] 	0
scalar ws1_network.node[15].content_store 	decision_ratio[15] 	0
scalar ws1_network.node[15].content_store 	correction_factor[15] 	0.0027225701061802
scalar ws1_network.node[15].content_store 	kappa[15] 	1
scalar ws1_network.node[16].core_layer 	interests[16] 	37179
scalar ws1_network.node[16].core_layer 	data[16] 	35021
scalar ws1_network.node[16].content_store 	p_hit[16] 	0.058016622286775
scalar ws1_network.node[16].content_store 	hits[16] 	2157
scalar ws1_network.node[16].content_store 	misses[16] 	35022
scalar ws1_network.node[16].content_store 	decision_yes[16] 	676
scalar ws1_network.node[16].content_store 	decision_no[16] 	34345
scalar ws1_network.node[16].content_store 	decision_ratio[16] 	0.019302704091831
scalar ws1_network.node[16].content_store 	correction_factor[16] 	0.0027225701061802
scalar ws1_network.node[16].content_store 	kappa[16] 	1
scalar ws1_network.node[17].core_layer 	interests[17] 	116215
scalar ws1_network.node[17].core_layer 	data[17] 	110612
scalar ws1_network.node[17].content_store 	p_hit[17] 	0.048212365013122
scalar ws1_network.node[17].content_store 	hits[17] 	5603
scalar ws1_network.node[17].content_store 	misses[17] 	110612
scalar ws1_network.node[17].content_store 	decision_yes[17] 	84
scalar ws1_network.node[17].content_store 	decision_no[17] 	110528
scalar ws1_network.node[17].content_store 	decision_ratio[17] 	0.00075941127544932
scalar ws1_network.node[17].content_store 	correction_factor[17] 	0.0027225701061802
scalar ws1_network.node[17].content_store 	kappa[17] 	1
scalar ws1_network.node[18].core_layer 	interests[18] 	183596
scalar ws1_network.node[18].core_layer 	data[18] 	175448
scalar ws1_network.node[18].content_store 	p_hit[18] 	0.033508355301858
scalar ws1_network.node[18].content_store 	hits[18] 	6152
scalar ws1_network.node[18].content_store 	misses[18] 	177444
scalar ws1_network.node[18].content_store 	decision_yes[18] 	793
scalar ws1_network.node[18].content_store 	decision_no[18] 	174655
scalar ws1_network.node[18].content_store 	decision_ratio[18] 	0.0045198577356254
scalar ws1_network.node[18].content_store 	correction_factor[18] 	0.0027225701061802
scalar ws1_network.node[18].content_store 	kappa[18] 	1
scalar ws1_network.node[19].core_layer 	interests[19] 	5127
scalar ws1_network.node[19].core_layer 	data[19] 	5127
scalar ws1_network.node[19].content_store 	p_hit[19] 	0
scalar ws1_network.node[19].content_store 	hits[19] 	0
scalar ws1_network.node[19].content_store 	misses[19] 	5127
scalar ws1_network.node[19].content_store 	decision_yes[19] 	0
scalar ws1_network.node[19].content_store 	decision_no[19] 	5127
scalar ws1_network.node[19].content_store 	decision_ratio[19] 	0
scalar ws1_network.node[19].content_store 	correction_factor[19] 	0.0027225701061802
scalar ws1_network.node[19].content_store 	kappa[19] 	1
scalar ws1_network.node[20].core_layer 	interests[20] 	0
scalar ws1_network.node[20].core_layer 	data[20] 	0
scalar ws1_network.node[20].content_store 	p_hit[20] 	-nan
scalar ws1_network.node[20].content_store 	hits[20] 	0
scalar ws1_network.node[20].content_store 	misses[20] 	0
scalar ws1_network.node[20].content_store 	decision_yes[20] 	0
scalar ws1_network.node[20].content_store 	decision_no[20] 	0
scalar ws1_network.node[20].content_store 	decision_ratio[20] 	0
scalar ws1_network.node[20].content_store 	correction_factor[20] 	0.0027225701061802
scalar ws1_network.node[20].content_store 	kappa[20] 	1
scalar ws1_network.node[21].core_layer 	interests[21] 	0
scalar ws1_network.node[21].core_layer 	data[21] 	0
scalar ws1_network.node[21].content_store 	p_hit[21] 	-nan
scalar ws1_network.node[21].content_store 	hits[21] 	0
scalar ws1_network.node[21].content_store 	misses[21] 	0
scalar ws1_network.node[21].content_store 	decision_yes[21] 	0
scalar ws1_network.node[21].content_store 	decision_no[21] 	0
scalar ws1_network.node[21].content_store 	decision_ratio[21] 	0
scalar ws1_network.node[21].content_store 	correction_factor[21] 	0.0027225701061802
scalar ws1_network.node[21].content_store 	kappa[21] 	1
scalar ws1_network.client[8] 	hdistance[8] 	2.8163139847046
scalar ws1_network.client[8] 	downloads[8] 	177308
scalar ws1_network.client[8] 	avg_time[8] 	0.010641247335
scalar ws1_network.client[8] 	interests_sent[8] 	179817
scalar ws1_network.client[9] 	hdistance[9] 	3.2867580890718
scalar ws1_network.client[9] 	downloads[9] 	176689
scalar ws1_network.client[9] 	avg_time[9] 	0.013117800416
scalar ws1_network.client[9] 	interests_sent[9] 	179451
scalar ws1_network.client[18] 	hdistance[18] 	2.9356881714382
scalar ws1_network.client[18] 	downloads[18] 	177790
scalar ws1_network.client[18] 	avg_time[18] 	0.011360020609
scalar ws1_network.client[18] 	interests_sent[18] 	179786
