version 2
run General-3-20141031-12:09:19-1385
attr D costaware0.01
attr F nrr
attr R lru
attr a 1
attr configname General
attr csize 1e3
attr ctlg 1e5
attr datetime 20141031-12:09:19
attr experiment General
attr inifile omnetpp.ini
attr iterationvars "$rep=20, $lambda=100, $a=1, $ctlg=1e5, $F=nrr, $ttl=10, $D=costaware0.01, $R=lru, $csize=1e3, $window=60, $variance=0.05, $mytime=1800, $kappa=1, $priceratiovalue=10, $pricebits=0"
attr iterationvars2 "$rep=20, $lambda=100, $a=1, $ctlg=1e5, $F=nrr, $ttl=10, $D=costaware0.01, $R=lru, $csize=1e3, $window=60, $variance=0.05, $mytime=1800, $kappa=1, $priceratiovalue=10, $pricebits=0, $repetition=0"
attr kappa 1
attr lambda 100
attr measurement "$rep=20, $lambda=100, $a=1, $ctlg=1e5, $F=nrr, $ttl=10, $D=costaware0.01, $R=lru, $csize=1e3, $window=60, $variance=0.05, $mytime=1800, $kappa=1, $priceratiovalue=10, $pricebits=0"
attr mytime 1800
attr network networks.ws${rep}_network
attr pricebits 0
attr priceratiovalue 10
attr processid 1385
attr rep 20
attr repetition 0
attr replication #0
attr resultdir results
attr runnumber 3
attr seedset 20
attr ttl 10
attr variance 0.05
attr window 60

scalar . 	a 	1
scalar . 	csize 	1e3
scalar . 	ctlg 	1e5
scalar . 	kappa 	1
scalar . 	lambda 	100
scalar . 	mytime 	1800
scalar . 	pricebits 	0
scalar . 	priceratiovalue 	10
scalar . 	rep 	20
scalar . 	ttl 	10
scalar . 	variance 	0.05
scalar . 	window 	60
scalar ws20_network.content_distribution 	repo-0 	3
scalar ws20_network.content_distribution 	repo-1 	18
scalar ws20_network.content_distribution 	repo-2 	2
scalar ws20_network.content_distribution 	client-0 	15
scalar ws20_network.content_distribution 	client-1 	2
scalar ws20_network.content_distribution 	client-2 	10
scalar ws20_network.content_distribution 	repo-0_card 	33323
scalar ws20_network.content_distribution 	repo-0_price 	0
scalar ws20_network.content_distribution 	repo-1_card 	33295
scalar ws20_network.content_distribution 	repo-1_price 	1
scalar ws20_network.content_distribution 	repo-2_card 	33382
scalar ws20_network.content_distribution 	repo-2_price 	10
scalar ws20_network.statistics 	repo_popularity[0] 	0.32913833141561
scalar ws20_network.statistics 	repo_popularity[1] 	0.36392115774491
scalar ws20_network.statistics 	repo_popularity[2] 	0.3069405108395
scalar ws20_network.statistics 	p_hit 	0.077269777168818
scalar ws20_network.statistics 	interests 	3781.9090909091
scalar ws20_network.statistics 	data 	2323.8181818182
scalar ws20_network.statistics 	hdistance 	2.4091251489763
scalar ws20_network.statistics 	avg_time 	0.008312957956
scalar ws20_network.statistics 	downloads 	31779
scalar ws20_network.statistics 	total_cost 	73836
scalar ws20_network.statistics 	total_replicas 	100000
scalar ws20_network.statistics 	inner_hit 	0.20497813021178
scalar ws20_network.statistics 	interests_sent 	32076
scalar ws20_network.node[0].core_layer 	interests[0] 	54
scalar ws20_network.node[0].core_layer 	data[0] 	54
scalar ws20_network.node[0].core_layer 	repo_int[0] 	25265
scalar ws20_network.node[0].content_store 	p_hit[0] 	0
scalar ws20_network.node[0].content_store 	hits[0] 	0
scalar ws20_network.node[0].content_store 	misses[0] 	54
scalar ws20_network.node[0].content_store 	decision_yes[0] 	0
scalar ws20_network.node[0].content_store 	decision_no[0] 	54
scalar ws20_network.node[0].content_store 	decision_ratio[0] 	0
scalar ws20_network.node[0].content_store 	correction_factor[0] 	0.0027225701061802
scalar ws20_network.node[0].content_store 	kappa[0] 	1
scalar ws20_network.node[1].core_layer 	interests[1] 	3583
scalar ws20_network.node[1].core_layer 	data[1] 	3399
scalar ws20_network.node[1].content_store 	p_hit[1] 	0.051074518559866
scalar ws20_network.node[1].content_store 	hits[1] 	183
scalar ws20_network.node[1].content_store 	misses[1] 	3400
scalar ws20_network.node[1].content_store 	decision_yes[1] 	7
scalar ws20_network.node[1].content_store 	decision_no[1] 	3392
scalar ws20_network.node[1].content_store 	decision_ratio[1] 	0.0020594292438953
scalar ws20_network.node[1].content_store 	correction_factor[1] 	0.0027225701061802
scalar ws20_network.node[1].content_store 	kappa[1] 	1
scalar ws20_network.node[2].core_layer 	interests[2] 	16072
scalar ws20_network.node[2].core_layer 	repo_load[2] 	6571
scalar ws20_network.node[2].core_layer 	data[2] 	7264
scalar ws20_network.node[2].content_store 	p_hit[2] 	0.1340219014435
scalar ws20_network.node[2].content_store 	hits[2] 	2154
scalar ws20_network.node[2].content_store 	misses[2] 	13918
scalar ws20_network.node[2].content_store 	decision_yes[2] 	193
scalar ws20_network.node[2].content_store 	decision_no[2] 	13642
scalar ws20_network.node[2].content_store 	decision_ratio[2] 	0.013950126490784
scalar ws20_network.node[2].content_store 	correction_factor[2] 	0.0027225701061802
scalar ws20_network.node[2].content_store 	kappa[2] 	1
scalar ws20_network.node[3].core_layer 	interests[3] 	10568
scalar ws20_network.node[3].core_layer 	repo_load[3] 	10568
scalar ws20_network.node[3].core_layer 	data[3] 	0
scalar ws20_network.node[3].content_store 	p_hit[3] 	0
scalar ws20_network.node[3].content_store 	hits[3] 	0
scalar ws20_network.node[3].content_store 	misses[3] 	10568
scalar ws20_network.node[3].content_store 	decision_yes[3] 	0
scalar ws20_network.node[3].content_store 	decision_no[3] 	10568
scalar ws20_network.node[3].content_store 	decision_ratio[3] 	0
scalar ws20_network.node[3].content_store 	correction_factor[3] 	0.0027225701061802
scalar ws20_network.node[3].content_store 	kappa[3] 	1
scalar ws20_network.node[4].core_layer 	interests[4] 	0
scalar ws20_network.node[4].core_layer 	data[4] 	0
scalar ws20_network.node[4].content_store 	p_hit[4] 	-nan
scalar ws20_network.node[4].content_store 	hits[4] 	0
scalar ws20_network.node[4].content_store 	misses[4] 	0
scalar ws20_network.node[4].content_store 	decision_yes[4] 	0
scalar ws20_network.node[4].content_store 	decision_no[4] 	0
scalar ws20_network.node[4].content_store 	decision_ratio[4] 	0
scalar ws20_network.node[4].content_store 	correction_factor[4] 	0.0027225701061802
scalar ws20_network.node[4].content_store 	kappa[4] 	1
scalar ws20_network.node[5].core_layer 	interests[5] 	0
scalar ws20_network.node[5].core_layer 	data[5] 	0
scalar ws20_network.node[5].content_store 	p_hit[5] 	-nan
scalar ws20_network.node[5].content_store 	hits[5] 	0
scalar ws20_network.node[5].content_store 	misses[5] 	0
scalar ws20_network.node[5].content_store 	decision_yes[5] 	0
scalar ws20_network.node[5].content_store 	decision_no[5] 	0
scalar ws20_network.node[5].content_store 	decision_ratio[5] 	0
scalar ws20_network.node[5].content_store 	correction_factor[5] 	0.0027225701061802
scalar ws20_network.node[5].content_store 	kappa[5] 	1
scalar ws20_network.node[6].core_layer 	interests[6] 	0
scalar ws20_network.node[6].core_layer 	data[6] 	0
scalar ws20_network.node[6].content_store 	p_hit[6] 	-nan
scalar ws20_network.node[6].content_store 	hits[6] 	0
scalar ws20_network.node[6].content_store 	misses[6] 	0
scalar ws20_network.node[6].content_store 	decision_yes[6] 	0
scalar ws20_network.node[6].content_store 	decision_no[6] 	0
scalar ws20_network.node[6].content_store 	decision_ratio[6] 	0
scalar ws20_network.node[6].content_store 	correction_factor[6] 	0.0027225701061802
scalar ws20_network.node[6].content_store 	kappa[6] 	1
scalar ws20_network.node[7].core_layer 	interests[7] 	54
scalar ws20_network.node[7].core_layer 	data[7] 	54
scalar ws20_network.node[7].content_store 	p_hit[7] 	0
scalar ws20_network.node[7].content_store 	hits[7] 	0
scalar ws20_network.node[7].content_store 	misses[7] 	54
scalar ws20_network.node[7].content_store 	decision_yes[7] 	0
scalar ws20_network.node[7].content_store 	decision_no[7] 	54
scalar ws20_network.node[7].content_store 	decision_ratio[7] 	0
scalar ws20_network.node[7].content_store 	correction_factor[7] 	0.0027225701061802
scalar ws20_network.node[7].content_store 	kappa[7] 	1
scalar ws20_network.node[8].core_layer 	interests[8] 	0
scalar ws20_network.node[8].core_layer 	data[8] 	0
scalar ws20_network.node[8].content_store 	p_hit[8] 	-nan
scalar ws20_network.node[8].content_store 	hits[8] 	0
scalar ws20_network.node[8].content_store 	misses[8] 	0
scalar ws20_network.node[8].content_store 	decision_yes[8] 	0
scalar ws20_network.node[8].content_store 	decision_no[8] 	0
scalar ws20_network.node[8].content_store 	decision_ratio[8] 	0
scalar ws20_network.node[8].content_store 	correction_factor[8] 	0.0027225701061802
scalar ws20_network.node[8].content_store 	kappa[8] 	1
scalar ws20_network.node[9].core_layer 	interests[9] 	3616
scalar ws20_network.node[9].core_layer 	data[9] 	3616
scalar ws20_network.node[9].content_store 	p_hit[9] 	0
scalar ws20_network.node[9].content_store 	hits[9] 	0
scalar ws20_network.node[9].content_store 	misses[9] 	3616
scalar ws20_network.node[9].content_store 	decision_yes[9] 	0
scalar ws20_network.node[9].content_store 	decision_no[9] 	3616
scalar ws20_network.node[9].content_store 	decision_ratio[9] 	0
scalar ws20_network.node[9].content_store 	correction_factor[9] 	0.0027225701061802
scalar ws20_network.node[9].content_store 	kappa[9] 	1
scalar ws20_network.node[10].core_layer 	interests[10] 	10936
scalar ws20_network.node[10].core_layer 	data[10] 	10236
scalar ws20_network.node[10].content_store 	p_hit[10] 	0.050749817117776
scalar ws20_network.node[10].content_store 	hits[10] 	555
scalar ws20_network.node[10].content_store 	misses[10] 	10381
scalar ws20_network.node[10].content_store 	decision_yes[10] 	67
scalar ws20_network.node[10].content_store 	decision_no[10] 	10169
scalar ws20_network.node[10].content_store 	decision_ratio[10] 	0.0065455255959359
scalar ws20_network.node[10].content_store 	correction_factor[10] 	0.0027225701061802
scalar ws20_network.node[10].content_store 	kappa[10] 	1
scalar ws20_network.node[11].core_layer 	interests[11] 	0
scalar ws20_network.node[11].core_layer 	data[11] 	0
scalar ws20_network.node[11].content_store 	p_hit[11] 	-nan
scalar ws20_network.node[11].content_store 	hits[11] 	0
scalar ws20_network.node[11].content_store 	misses[11] 	0
scalar ws20_network.node[11].content_store 	decision_yes[11] 	0
scalar ws20_network.node[11].content_store 	decision_no[11] 	0
scalar ws20_network.node[11].content_store 	decision_ratio[11] 	0
scalar ws20_network.node[11].content_store 	correction_factor[11] 	0.0027225701061802
scalar ws20_network.node[11].content_store 	kappa[11] 	1
scalar ws20_network.node[12].core_layer 	interests[12] 	0
scalar ws20_network.node[12].core_layer 	data[12] 	0
scalar ws20_network.node[12].content_store 	p_hit[12] 	-nan
scalar ws20_network.node[12].content_store 	hits[12] 	0
scalar ws20_network.node[12].content_store 	misses[12] 	0
scalar ws20_network.node[12].content_store 	decision_yes[12] 	0
scalar ws20_network.node[12].content_store 	decision_no[12] 	0
scalar ws20_network.node[12].content_store 	decision_ratio[12] 	0
scalar ws20_network.node[12].content_store 	correction_factor[12] 	0.0027225701061802
scalar ws20_network.node[12].content_store 	kappa[12] 	1
scalar ws20_network.node[13].core_layer 	interests[13] 	6980
scalar ws20_network.node[13].core_layer 	data[13] 	6749
scalar ws20_network.node[13].content_store 	p_hit[13] 	0.033094555873925
scalar ws20_network.node[13].content_store 	hits[13] 	231
scalar ws20_network.node[13].content_store 	misses[13] 	6749
scalar ws20_network.node[13].content_store 	decision_yes[13] 	41
scalar ws20_network.node[13].content_store 	decision_no[13] 	6708
scalar ws20_network.node[13].content_store 	decision_ratio[13] 	0.0060749740702326
scalar ws20_network.node[13].content_store 	correction_factor[13] 	0.0027225701061802
scalar ws20_network.node[13].content_store 	kappa[13] 	1
scalar ws20_network.node[14].core_layer 	interests[14] 	0
scalar ws20_network.node[14].core_layer 	data[14] 	0
scalar ws20_network.node[14].content_store 	p_hit[14] 	-nan
scalar ws20_network.node[14].content_store 	hits[14] 	0
scalar ws20_network.node[14].content_store 	misses[14] 	0
scalar ws20_network.node[14].content_store 	decision_yes[14] 	0
scalar ws20_network.node[14].content_store 	decision_no[14] 	0
scalar ws20_network.node[14].content_store 	decision_ratio[14] 	0
scalar ws20_network.node[14].content_store 	correction_factor[14] 	0.0027225701061802
scalar ws20_network.node[14].content_store 	kappa[14] 	1
scalar ws20_network.node[15].core_layer 	interests[15] 	20975
scalar ws20_network.node[15].core_layer 	data[15] 	19752
scalar ws20_network.node[15].content_store 	p_hit[15] 	0.050917759237187
scalar ws20_network.node[15].content_store 	hits[15] 	1068
scalar ws20_network.node[15].content_store 	misses[15] 	19907
scalar ws20_network.node[15].content_store 	decision_yes[15] 	129
scalar ws20_network.node[15].content_store 	decision_no[15] 	19623
scalar ws20_network.node[15].content_store 	decision_ratio[15] 	0.0065309842041312
scalar ws20_network.node[15].content_store 	correction_factor[15] 	0.0027225701061802
scalar ws20_network.node[15].content_store 	kappa[15] 	1
scalar ws20_network.node[16].core_layer 	interests[16] 	0
scalar ws20_network.node[16].core_layer 	data[16] 	0
scalar ws20_network.node[16].content_store 	p_hit[16] 	-nan
scalar ws20_network.node[16].content_store 	hits[16] 	0
scalar ws20_network.node[16].content_store 	misses[16] 	0
scalar ws20_network.node[16].content_store 	decision_yes[16] 	0
scalar ws20_network.node[16].content_store 	decision_no[16] 	0
scalar ws20_network.node[16].content_store 	decision_ratio[16] 	0
scalar ws20_network.node[16].content_store 	correction_factor[16] 	0.0027225701061802
scalar ws20_network.node[16].content_store 	kappa[16] 	1
scalar ws20_network.node[17].core_layer 	interests[17] 	0
scalar ws20_network.node[17].core_layer 	data[17] 	0
scalar ws20_network.node[17].content_store 	p_hit[17] 	-nan
scalar ws20_network.node[17].content_store 	hits[17] 	0
scalar ws20_network.node[17].content_store 	misses[17] 	0
scalar ws20_network.node[17].content_store 	decision_yes[17] 	0
scalar ws20_network.node[17].content_store 	decision_no[17] 	0
scalar ws20_network.node[17].content_store 	decision_ratio[17] 	0
scalar ws20_network.node[17].content_store 	correction_factor[17] 	0.0027225701061802
scalar ws20_network.node[17].content_store 	kappa[17] 	1
scalar ws20_network.node[18].core_layer 	interests[18] 	10364
scalar ws20_network.node[18].core_layer 	repo_load[18] 	8126
scalar ws20_network.node[18].core_layer 	data[18] 	0
scalar ws20_network.node[18].content_store 	p_hit[18] 	0.21593979158626
scalar ws20_network.node[18].content_store 	hits[18] 	2238
scalar ws20_network.node[18].content_store 	misses[18] 	8126
scalar ws20_network.node[18].content_store 	decision_yes[18] 	14
scalar ws20_network.node[18].content_store 	decision_no[18] 	8112
scalar ws20_network.node[18].content_store 	decision_ratio[18] 	0.0017228648781688
scalar ws20_network.node[18].content_store 	correction_factor[18] 	0.0027225701061802
scalar ws20_network.node[18].content_store 	kappa[18] 	1
scalar ws20_network.node[19].core_layer 	interests[19] 	0
scalar ws20_network.node[19].core_layer 	data[19] 	0
scalar ws20_network.node[19].content_store 	p_hit[19] 	-nan
scalar ws20_network.node[19].content_store 	hits[19] 	0
scalar ws20_network.node[19].content_store 	misses[19] 	0
scalar ws20_network.node[19].content_store 	decision_yes[19] 	0
scalar ws20_network.node[19].content_store 	decision_no[19] 	0
scalar ws20_network.node[19].content_store 	decision_ratio[19] 	0
scalar ws20_network.node[19].content_store 	correction_factor[19] 	0.0027225701061802
scalar ws20_network.node[19].content_store 	kappa[19] 	1
scalar ws20_network.node[20].core_layer 	interests[20] 	0
scalar ws20_network.node[20].core_layer 	data[20] 	0
scalar ws20_network.node[20].content_store 	p_hit[20] 	-nan
scalar ws20_network.node[20].content_store 	hits[20] 	0
scalar ws20_network.node[20].content_store 	misses[20] 	0
scalar ws20_network.node[20].content_store 	decision_yes[20] 	0
scalar ws20_network.node[20].content_store 	decision_no[20] 	0
scalar ws20_network.node[20].content_store 	decision_ratio[20] 	0
scalar ws20_network.node[20].content_store 	correction_factor[20] 	0.0027225701061802
scalar ws20_network.node[20].content_store 	kappa[20] 	1
scalar ws20_network.node[21].core_layer 	interests[21] 	0
scalar ws20_network.node[21].core_layer 	data[21] 	0
scalar ws20_network.node[21].content_store 	p_hit[21] 	-nan
scalar ws20_network.node[21].content_store 	hits[21] 	0
scalar ws20_network.node[21].content_store 	misses[21] 	0
scalar ws20_network.node[21].content_store 	decision_yes[21] 	0
scalar ws20_network.node[21].content_store 	decision_no[21] 	0
scalar ws20_network.node[21].content_store 	decision_ratio[21] 	0
scalar ws20_network.node[21].content_store 	correction_factor[21] 	0.0027225701061802
scalar ws20_network.node[21].content_store 	kappa[21] 	1
scalar ws20_network.client[2] 	hdistance[2] 	2.1622977193148
scalar ws20_network.client[2] 	downloads[2] 	10567
scalar ws20_network.client[2] 	avg_time[2] 	0.00694229075
scalar ws20_network.client[2] 	interests_sent[2] 	10649
scalar ws20_network.client[10] 	hdistance[10] 	3.2957386363636
scalar ws20_network.client[10] 	downloads[10] 	10560
scalar ws20_network.client[10] 	avg_time[10] 	0.012928008679
scalar ws20_network.client[10] 	interests_sent[10] 	10705
scalar ws20_network.client[15] 	hdistance[15] 	1.7693390912505
scalar ws20_network.client[15] 	downloads[15] 	10652
scalar ws20_network.client[15] 	avg_time[15] 	0.005068574441
scalar ws20_network.client[15] 	interests_sent[15] 	10722
