version 2
run General-0-20141031-13:17:31-18481
attr D costaware0.01
attr F nrr
attr R lru
attr a 1
attr configname General
attr csize 1e3
attr ctlg 1e5
attr datetime 20141031-13:17:31
attr experiment General
attr inifile omnetpp.ini
attr iterationvars "$rep=14, $lambda=100, $a=1, $ctlg=1e5, $F=nrr, $ttl=10, $D=costaware0.01, $R=lru, $csize=1e3, $window=60, $variance=0.05, $mytime=1800, $kappa=1, $priceratiovalue=10, $pricebits=0"
attr iterationvars2 "$rep=14, $lambda=100, $a=1, $ctlg=1e5, $F=nrr, $ttl=10, $D=costaware0.01, $R=lru, $csize=1e3, $window=60, $variance=0.05, $mytime=1800, $kappa=1, $priceratiovalue=10, $pricebits=0, $repetition=0"
attr kappa 1
attr lambda 100
attr measurement "$rep=14, $lambda=100, $a=1, $ctlg=1e5, $F=nrr, $ttl=10, $D=costaware0.01, $R=lru, $csize=1e3, $window=60, $variance=0.05, $mytime=1800, $kappa=1, $priceratiovalue=10, $pricebits=0"
attr mytime 1800
attr network networks.ws${rep}_network
attr pricebits 0
attr priceratiovalue 10
attr processid 18481
attr rep 14
attr repetition 0
attr replication #0
attr resultdir results
attr runnumber 0
attr seedset 14
attr ttl 10
attr variance 0.05
attr window 60

scalar . 	a 	1
scalar . 	csize 	1e3
scalar . 	ctlg 	1e5
scalar . 	kappa 	1
scalar . 	lambda 	100
scalar . 	mytime 	1800
scalar . 	pricebits 	0
scalar . 	priceratiovalue 	10
scalar . 	rep 	14
scalar . 	ttl 	10
scalar . 	variance 	0.05
scalar . 	window 	60
scalar ws14_network.content_distribution 	repo-0 	4
scalar ws14_network.content_distribution 	repo-1 	0
scalar ws14_network.content_distribution 	repo-2 	17
scalar ws14_network.content_distribution 	client-0 	16
scalar ws14_network.content_distribution 	client-1 	19
scalar ws14_network.content_distribution 	client-2 	17
scalar ws14_network.content_distribution 	repo-0_card 	32960
scalar ws14_network.content_distribution 	repo-0_price 	10
scalar ws14_network.content_distribution 	repo-1_card 	33557
scalar ws14_network.content_distribution 	repo-1_price 	1
scalar ws14_network.content_distribution 	repo-2_card 	33483
scalar ws14_network.content_distribution 	repo-2_price 	0
scalar ws14_network.statistics 	repo_popularity[0] 	0.30774250677815
scalar ws14_network.statistics 	repo_popularity[1] 	0.28614157627629
scalar ws14_network.statistics 	repo_popularity[2] 	0.40611591694558
