version 2
run General-11-20141030-19:09:33-5047
attr D costaware0.01
attr F nrr
attr R lru
attr a 1
attr configname General
attr csize 1e3
attr ctlg 1e5
attr datetime 20141030-19:09:33
attr experiment General
attr inifile omnetpp.ini
attr iterationvars "$rep=7, $lambda=100, $a=1, $ctlg=1e5, $F=nrr, $ttl=10, $D=costaware0.01, $R=lru, $csize=1e3, $window=60, $variance=0.05, $mytime=1800, $kappa=1, $priceratiovalue=10, $pricebits=0"
attr iterationvars2 "$rep=7, $lambda=100, $a=1, $ctlg=1e5, $F=nrr, $ttl=10, $D=costaware0.01, $R=lru, $csize=1e3, $window=60, $variance=0.05, $mytime=1800, $kappa=1, $priceratiovalue=10, $pricebits=0, $repetition=0"
attr kappa 1
attr lambda 100
attr measurement "$rep=7, $lambda=100, $a=1, $ctlg=1e5, $F=nrr, $ttl=10, $D=costaware0.01, $R=lru, $csize=1e3, $window=60, $variance=0.05, $mytime=1800, $kappa=1, $priceratiovalue=10, $pricebits=0"
attr mytime 1800
attr network networks.ws${rep}_network
attr pricebits 0
attr priceratiovalue 10
attr processid 5047
attr rep 7
attr repetition 0
attr replication #0
attr resultdir results
attr runnumber 11
attr seedset 7
attr ttl 10
attr variance 0.05
attr window 60

scalar . 	a 	1
scalar . 	csize 	1e3
scalar . 	ctlg 	1e5
scalar . 	kappa 	1
scalar . 	lambda 	100
scalar . 	mytime 	1800
scalar . 	pricebits 	0
scalar . 	priceratiovalue 	10
scalar . 	rep 	7
scalar . 	ttl 	10
scalar . 	variance 	0.05
scalar . 	window 	60
scalar ws7_network.content_distribution 	repo-0 	21
scalar ws7_network.content_distribution 	repo-1 	4
scalar ws7_network.content_distribution 	repo-2 	12
scalar ws7_network.content_distribution 	client-0 	4
scalar ws7_network.content_distribution 	client-1 	6
scalar ws7_network.content_distribution 	client-2 	11
scalar ws7_network.content_distribution 	repo-0_card 	33105
scalar ws7_network.content_distribution 	repo-0_price 	0
scalar ws7_network.content_distribution 	repo-1_card 	33508
scalar ws7_network.content_distribution 	repo-1_price 	1
scalar ws7_network.content_distribution 	repo-2_card 	33387
scalar ws7_network.content_distribution 	repo-2_price 	10
scalar ws7_network.statistics 	repo_popularity[0] 	0.38081187055787
scalar ws7_network.statistics 	repo_popularity[1] 	0.26942063079195
scalar ws7_network.statistics 	repo_popularity[2] 	0.3497674986502
scalar ws7_network.statistics 	stabilization_time 	36060
scalar ws7_network.statistics 	p_hit 	0.097076513473063
scalar ws7_network.statistics 	interests 	70185.5
scalar ws7_network.statistics 	data 	45653.454545455
scalar ws7_network.statistics 	hdistance 	2.6028926453416
scalar ws7_network.statistics 	avg_time 	0.009701985822
scalar ws7_network.statistics 	downloads 	535033
scalar ws7_network.statistics 	total_cost 	939796
scalar ws7_network.statistics 	total_replicas 	100000
scalar ws7_network.statistics 	inner_hit 	0.28273956933498
scalar ws7_network.statistics 	interests_sent 	539711
scalar ws7_network.node[0].core_layer 	interests[0] 	0
scalar ws7_network.node[0].core_layer 	data[0] 	0
scalar ws7_network.node[0].core_layer 	repo_int[0] 	383758
scalar ws7_network.node[0].content_store 	p_hit[0] 	-nan
scalar ws7_network.node[0].content_store 	hits[0] 	0
scalar ws7_network.node[0].content_store 	misses[0] 	0
scalar ws7_network.node[0].content_store 	decision_yes[0] 	0
scalar ws7_network.node[0].content_store 	decision_no[0] 	0
scalar ws7_network.node[0].content_store 	decision_ratio[0] 	0
scalar ws7_network.node[0].content_store 	correction_factor[0] 	0.0027225701061802
scalar ws7_network.node[0].content_store 	kappa[0] 	1
scalar ws7_network.node[1].core_layer 	interests[1] 	0
scalar ws7_network.node[1].core_layer 	data[1] 	0
scalar ws7_network.node[1].content_store 	p_hit[1] 	-nan
scalar ws7_network.node[1].content_store 	hits[1] 	0
scalar ws7_network.node[1].content_store 	misses[1] 	0
scalar ws7_network.node[1].content_store 	decision_yes[1] 	0
scalar ws7_network.node[1].content_store 	decision_no[1] 	0
scalar ws7_network.node[1].content_store 	decision_ratio[1] 	0
scalar ws7_network.node[1].content_store 	correction_factor[1] 	0.0027225701061802
scalar ws7_network.node[1].content_store 	kappa[1] 	1
scalar ws7_network.node[2].core_layer 	interests[2] 	125299
scalar ws7_network.node[2].core_layer 	data[2] 	115315
scalar ws7_network.node[2].content_store 	p_hit[2] 	0.07968140208621
scalar ws7_network.node[2].content_store 	hits[2] 	9984
scalar ws7_network.node[2].content_store 	misses[2] 	115315
scalar ws7_network.node[2].content_store 	decision_yes[2] 	1648
scalar ws7_network.node[2].content_store 	decision_no[2] 	113667
scalar ws7_network.node[2].content_store 	decision_ratio[2] 	0.014291289077744
scalar ws7_network.node[2].content_store 	correction_factor[2] 	0.0027225701061802
scalar ws7_network.node[2].content_store 	kappa[2] 	1
scalar ws7_network.node[3].core_layer 	interests[3] 	6707
scalar ws7_network.node[3].core_layer 	data[3] 	6707
scalar ws7_network.node[3].content_store 	p_hit[3] 	0
scalar ws7_network.node[3].content_store 	hits[3] 	0
scalar ws7_network.node[3].content_store 	misses[3] 	6707
scalar ws7_network.node[3].content_store 	decision_yes[3] 	0
scalar ws7_network.node[3].content_store 	decision_no[3] 	6707
scalar ws7_network.node[3].content_store 	decision_ratio[3] 	0
scalar ws7_network.node[3].content_store 	correction_factor[3] 	0.0027225701061802
scalar ws7_network.node[3].content_store 	kappa[3] 	1
scalar ws7_network.node[4].core_layer 	interests[4] 	385698
scalar ws7_network.node[4].core_layer 	repo_load[4] 	99886
scalar ws7_network.node[4].core_layer 	data[4] 	223340
scalar ws7_network.node[4].content_store 	p_hit[4] 	0.15648253296621
scalar ws7_network.node[4].content_store 	hits[4] 	60355
scalar ws7_network.node[4].content_store 	misses[4] 	325343
scalar ws7_network.node[4].content_store 	decision_yes[4] 	1797
scalar ws7_network.node[4].content_store 	decision_no[4] 	321429
scalar ws7_network.node[4].content_store 	decision_ratio[4] 	0.005559577509235
scalar ws7_network.node[4].content_store 	correction_factor[4] 	0.0027225701061802
scalar ws7_network.node[4].content_store 	kappa[4] 	1
scalar ws7_network.node[5].core_layer 	interests[5] 	0
scalar ws7_network.node[5].core_layer 	data[5] 	0
scalar ws7_network.node[5].content_store 	p_hit[5] 	-nan
scalar ws7_network.node[5].content_store 	hits[5] 	0
scalar ws7_network.node[5].content_store 	misses[5] 	0
scalar ws7_network.node[5].content_store 	decision_yes[5] 	0
scalar ws7_network.node[5].content_store 	decision_no[5] 	0
scalar ws7_network.node[5].content_store 	decision_ratio[5] 	0
scalar ws7_network.node[5].content_store 	correction_factor[5] 	0.0027225701061802
scalar ws7_network.node[5].content_store 	kappa[5] 	1
scalar ws7_network.node[6].core_layer 	interests[6] 	186880
scalar ws7_network.node[6].core_layer 	data[6] 	172905
scalar ws7_network.node[6].content_store 	p_hit[6] 	0.06574272260274
scalar ws7_network.node[6].content_store 	hits[6] 	12286
scalar ws7_network.node[6].content_store 	misses[6] 	174594
scalar ws7_network.node[6].content_store 	decision_yes[6] 	826
scalar ws7_network.node[6].content_store 	decision_no[6] 	172079
scalar ws7_network.node[6].content_store 	decision_ratio[6] 	0.0047771897862988
scalar ws7_network.node[6].content_store 	correction_factor[6] 	0.0027225701061802
scalar ws7_network.node[6].content_store 	kappa[6] 	1
scalar ws7_network.node[7].core_layer 	interests[7] 	0
scalar ws7_network.node[7].core_layer 	data[7] 	0
scalar ws7_network.node[7].content_store 	p_hit[7] 	-nan
scalar ws7_network.node[7].content_store 	hits[7] 	0
scalar ws7_network.node[7].content_store 	misses[7] 	0
scalar ws7_network.node[7].content_store 	decision_yes[7] 	0
scalar ws7_network.node[7].content_store 	decision_no[7] 	0
scalar ws7_network.node[7].content_store 	decision_ratio[7] 	0
scalar ws7_network.node[7].content_store 	correction_factor[7] 	0.0027225701061802
scalar ws7_network.node[7].content_store 	kappa[7] 	1
scalar ws7_network.node[8].core_layer 	interests[8] 	66497
scalar ws7_network.node[8].core_layer 	data[8] 	57253
scalar ws7_network.node[8].content_store 	p_hit[8] 	0.13890852218897
scalar ws7_network.node[8].content_store 	hits[8] 	9237
scalar ws7_network.node[8].content_store 	misses[8] 	57260
scalar ws7_network.node[8].content_store 	decision_yes[8] 	88
scalar ws7_network.node[8].content_store 	decision_no[8] 	57165
scalar ws7_network.node[8].content_store 	decision_ratio[8] 	0.0015370373604877
scalar ws7_network.node[8].content_store 	correction_factor[8] 	0.0027225701061802
scalar ws7_network.node[8].content_store 	kappa[8] 	1
scalar ws7_network.node[9].core_layer 	interests[9] 	174817
scalar ws7_network.node[9].core_layer 	data[9] 	160242
scalar ws7_network.node[9].content_store 	p_hit[9] 	0.083390059319174
scalar ws7_network.node[9].content_store 	hits[9] 	14578
scalar ws7_network.node[9].content_store 	misses[9] 	160239
scalar ws7_network.node[9].content_store 	decision_yes[9] 	816
scalar ws7_network.node[9].content_store 	decision_no[9] 	159426
scalar ws7_network.node[9].content_store 	decision_ratio[9] 	0.0050922978994271
scalar ws7_network.node[9].content_store 	correction_factor[9] 	0.0027225701061802
scalar ws7_network.node[9].content_store 	kappa[9] 	1
scalar ws7_network.node[10].core_layer 	interests[10] 	0
scalar ws7_network.node[10].core_layer 	data[10] 	0
scalar ws7_network.node[10].content_store 	p_hit[10] 	-nan
scalar ws7_network.node[10].content_store 	hits[10] 	0
scalar ws7_network.node[10].content_store 	misses[10] 	0
scalar ws7_network.node[10].content_store 	decision_yes[10] 	0
scalar ws7_network.node[10].content_store 	decision_no[10] 	0
scalar ws7_network.node[10].content_store 	decision_ratio[10] 	0
scalar ws7_network.node[10].content_store 	correction_factor[10] 	0.0027225701061802
scalar ws7_network.node[10].content_store 	kappa[10] 	1
scalar ws7_network.node[11].core_layer 	interests[11] 	181392
scalar ws7_network.node[11].core_layer 	data[11] 	167484
scalar ws7_network.node[11].content_store 	p_hit[11] 	0.06430272558878
scalar ws7_network.node[11].content_store 	hits[11] 	11664
scalar ws7_network.node[11].content_store 	misses[11] 	169728
scalar ws7_network.node[11].content_store 	decision_yes[11] 	855
scalar ws7_network.node[11].content_store 	decision_no[11] 	166629
scalar ws7_network.node[11].content_store 	decision_ratio[11] 	0.005104965250412
scalar ws7_network.node[11].content_store 	correction_factor[11] 	0.0027225701061802
scalar ws7_network.node[11].content_store 	kappa[11] 	1
scalar ws7_network.node[12].core_layer 	interests[12] 	105836
scalar ws7_network.node[12].core_layer 	repo_load[12] 	83991
scalar ws7_network.node[12].core_layer 	data[12] 	0
scalar ws7_network.node[12].content_store 	p_hit[12] 	0.20640424808194
scalar ws7_network.node[12].content_store 	hits[12] 	21845
scalar ws7_network.node[12].content_store 	misses[12] 	83991
scalar ws7_network.node[12].content_store 	decision_yes[12] 	2342
scalar ws7_network.node[12].content_store 	decision_no[12] 	81649
scalar ws7_network.node[12].content_store 	decision_ratio[12] 	0.027883939945947
scalar ws7_network.node[12].content_store 	correction_factor[12] 	0.0027225701061802
scalar ws7_network.node[12].content_store 	kappa[12] 	1
scalar ws7_network.node[13].core_layer 	interests[13] 	0
scalar ws7_network.node[13].core_layer 	data[13] 	0
scalar ws7_network.node[13].content_store 	p_hit[13] 	-nan
scalar ws7_network.node[13].content_store 	hits[13] 	0
scalar ws7_network.node[13].content_store 	misses[13] 	0
scalar ws7_network.node[13].content_store 	decision_yes[13] 	0
scalar ws7_network.node[13].content_store 	decision_no[13] 	0
scalar ws7_network.node[13].content_store 	decision_ratio[13] 	0
scalar ws7_network.node[13].content_store 	correction_factor[13] 	0.0027225701061802
scalar ws7_network.node[13].content_store 	kappa[13] 	1
scalar ws7_network.node[14].core_layer 	interests[14] 	111074
scalar ws7_network.node[14].core_layer 	data[14] 	101130
scalar ws7_network.node[14].content_store 	p_hit[14] 	0.089534904658156
scalar ws7_network.node[14].content_store 	hits[14] 	9945
scalar ws7_network.node[14].content_store 	misses[14] 	101129
scalar ws7_network.node[14].content_store 	decision_yes[14] 	773
scalar ws7_network.node[14].content_store 	decision_no[14] 	100357
scalar ws7_network.node[14].content_store 	decision_ratio[14] 	0.0076436270147335
scalar ws7_network.node[14].content_store 	correction_factor[14] 	0.0027225701061802
scalar ws7_network.node[14].content_store 	kappa[14] 	1
scalar ws7_network.node[15].core_layer 	interests[15] 	0
scalar ws7_network.node[15].core_layer 	data[15] 	0
scalar ws7_network.node[15].content_store 	p_hit[15] 	-nan
scalar ws7_network.node[15].content_store 	hits[15] 	0
scalar ws7_network.node[15].content_store 	misses[15] 	0
scalar ws7_network.node[15].content_store 	decision_yes[15] 	0
scalar ws7_network.node[15].content_store 	decision_no[15] 	0
scalar ws7_network.node[15].content_store 	decision_ratio[15] 	0
scalar ws7_network.node[15].content_store 	correction_factor[15] 	0.0027225701061802
scalar ws7_network.node[15].content_store 	kappa[15] 	1
scalar ws7_network.node[16].core_layer 	interests[16] 	0
scalar ws7_network.node[16].core_layer 	data[16] 	0
scalar ws7_network.node[16].content_store 	p_hit[16] 	-nan
scalar ws7_network.node[16].content_store 	hits[16] 	0
scalar ws7_network.node[16].content_store 	misses[16] 	0
scalar ws7_network.node[16].content_store 	decision_yes[16] 	0
scalar ws7_network.node[16].content_store 	decision_no[16] 	0
scalar ws7_network.node[16].content_store 	decision_ratio[16] 	0
scalar ws7_network.node[16].content_store 	correction_factor[16] 	0.0027225701061802
scalar ws7_network.node[16].content_store 	kappa[16] 	1
scalar ws7_network.node[17].core_layer 	interests[17] 	0
scalar ws7_network.node[17].core_layer 	data[17] 	0
scalar ws7_network.node[17].content_store 	p_hit[17] 	-nan
scalar ws7_network.node[17].content_store 	hits[17] 	0
scalar ws7_network.node[17].content_store 	misses[17] 	0
scalar ws7_network.node[17].content_store 	decision_yes[17] 	0
scalar ws7_network.node[17].content_store 	decision_no[17] 	0
scalar ws7_network.node[17].content_store 	decision_ratio[17] 	0
scalar ws7_network.node[17].content_store 	correction_factor[17] 	0.0027225701061802
scalar ws7_network.node[17].content_store 	kappa[17] 	1
scalar ws7_network.node[18].core_layer 	interests[18] 	0
scalar ws7_network.node[18].core_layer 	data[18] 	0
scalar ws7_network.node[18].content_store 	p_hit[18] 	-nan
scalar ws7_network.node[18].content_store 	hits[18] 	0
scalar ws7_network.node[18].content_store 	misses[18] 	0
scalar ws7_network.node[18].content_store 	decision_yes[18] 	0
scalar ws7_network.node[18].content_store 	decision_no[18] 	0
scalar ws7_network.node[18].content_store 	decision_ratio[18] 	0
scalar ws7_network.node[18].content_store 	correction_factor[18] 	0.0027225701061802
scalar ws7_network.node[18].content_store 	kappa[18] 	1
scalar ws7_network.node[19].core_layer 	interests[19] 	0
scalar ws7_network.node[19].core_layer 	data[19] 	0
scalar ws7_network.node[19].content_store 	p_hit[19] 	-nan
scalar ws7_network.node[19].content_store 	hits[19] 	0
scalar ws7_network.node[19].content_store 	misses[19] 	0
scalar ws7_network.node[19].content_store 	decision_yes[19] 	0
scalar ws7_network.node[19].content_store 	decision_no[19] 	0
scalar ws7_network.node[19].content_store 	decision_ratio[19] 	0
scalar ws7_network.node[19].content_store 	correction_factor[19] 	0.0027225701061802
scalar ws7_network.node[19].content_store 	kappa[19] 	1
scalar ws7_network.node[20].core_layer 	interests[20] 	0
scalar ws7_network.node[20].core_layer 	data[20] 	0
scalar ws7_network.node[20].content_store 	p_hit[20] 	-nan
scalar ws7_network.node[20].content_store 	hits[20] 	0
scalar ws7_network.node[20].content_store 	misses[20] 	0
scalar ws7_network.node[20].content_store 	decision_yes[20] 	0
scalar ws7_network.node[20].content_store 	decision_no[20] 	0
scalar ws7_network.node[20].content_store 	decision_ratio[20] 	0
scalar ws7_network.node[20].content_store 	correction_factor[20] 	0.0027225701061802
scalar ws7_network.node[20].content_store 	kappa[20] 	1
scalar ws7_network.node[21].core_layer 	interests[21] 	199881
scalar ws7_network.node[21].core_layer 	repo_load[21] 	199881
scalar ws7_network.node[21].core_layer 	data[21] 	0
scalar ws7_network.node[21].content_store 	p_hit[21] 	0
scalar ws7_network.node[21].content_store 	hits[21] 	0
scalar ws7_network.node[21].content_store 	misses[21] 	199881
scalar ws7_network.node[21].content_store 	decision_yes[21] 	0
scalar ws7_network.node[21].content_store 	decision_no[21] 	199881
scalar ws7_network.node[21].content_store 	decision_ratio[21] 	0
scalar ws7_network.node[21].content_store 	correction_factor[21] 	0.0027225701061802
scalar ws7_network.node[21].content_store 	kappa[21] 	1
scalar ws7_network.client[4] 	hdistance[4] 	1.6475343708097
scalar ws7_network.client[4] 	downloads[4] 	179731
scalar ws7_network.client[4] 	avg_time[4] 	0.004664726134
scalar ws7_network.client[4] 	interests_sent[4] 	180476
scalar ws7_network.client[6] 	hdistance[6] 	2.5379131160107
scalar ws7_network.client[6] 	downloads[6] 	177432
scalar ws7_network.client[6] 	avg_time[6] 	0.009423871869
scalar ws7_network.client[6] 	interests_sent[6] 	179121
scalar ws7_network.client[11] 	hdistance[11] 	3.6232304492045
scalar ws7_network.client[11] 	downloads[11] 	177870
scalar ws7_network.client[11] 	avg_time[11] 	0.015017359463
scalar ws7_network.client[11] 	interests_sent[11] 	180114
