version 2
run General-2-20141031-15:24:21-8796
attr D costaware0.01
attr F nrr
attr R lru
attr a 1
attr configname General
attr csize 1e3
attr ctlg 1e5
attr datetime 20141031-15:24:21
attr experiment General
attr inifile omnetpp.ini
attr iterationvars "$rep=21, $lambda=100, $a=1, $ctlg=1e5, $F=nrr, $ttl=10, $D=costaware0.01, $R=lru, $csize=1e3, $window=60, $variance=0.05, $mytime=1800, $kappa=1, $priceratiovalue=10, $pricebits=0"
attr iterationvars2 "$rep=21, $lambda=100, $a=1, $ctlg=1e5, $F=nrr, $ttl=10, $D=costaware0.01, $R=lru, $csize=1e3, $window=60, $variance=0.05, $mytime=1800, $kappa=1, $priceratiovalue=10, $pricebits=0, $repetition=0"
attr kappa 1
attr lambda 100
attr measurement "$rep=21, $lambda=100, $a=1, $ctlg=1e5, $F=nrr, $ttl=10, $D=costaware0.01, $R=lru, $csize=1e3, $window=60, $variance=0.05, $mytime=1800, $kappa=1, $priceratiovalue=10, $pricebits=0"
attr mytime 1800
attr network networks.ws${rep}_network
attr pricebits 0
attr priceratiovalue 10
attr processid 8796
attr rep 21
attr repetition 0
attr replication #0
attr resultdir results
attr runnumber 2
attr seedset 21
attr ttl 10
attr variance 0.05
attr window 60

scalar . 	a 	1
scalar . 	csize 	1e3
scalar . 	ctlg 	1e5
scalar . 	kappa 	1
scalar . 	lambda 	100
scalar . 	mytime 	1800
scalar . 	pricebits 	0
scalar . 	priceratiovalue 	10
scalar . 	rep 	21
scalar . 	ttl 	10
scalar . 	variance 	0.05
scalar . 	window 	60
scalar ws21_network.content_distribution 	repo-0 	4
scalar ws21_network.content_distribution 	repo-1 	6
scalar ws21_network.content_distribution 	repo-2 	17
scalar ws21_network.content_distribution 	client-0 	19
scalar ws21_network.content_distribution 	client-1 	21
scalar ws21_network.content_distribution 	client-2 	16
scalar ws21_network.content_distribution 	repo-0_card 	33236
scalar ws21_network.content_distribution 	repo-0_price 	10
scalar ws21_network.content_distribution 	repo-1_card 	33620
scalar ws21_network.content_distribution 	repo-1_price 	0
scalar ws21_network.content_distribution 	repo-2_card 	33144
scalar ws21_network.content_distribution 	repo-2_price 	1
scalar ws21_network.statistics 	repo_popularity[0] 	0.38565226540178
scalar ws21_network.statistics 	repo_popularity[1] 	0.27887605636544
scalar ws21_network.statistics 	repo_popularity[2] 	0.33547167823279
scalar ws21_network.statistics 	stabilization_time 	36060
scalar ws21_network.statistics 	p_hit 	0.11756801404836
scalar ws21_network.statistics 	interests 	79931.681818182
scalar ws21_network.statistics 	data 	55299.363636364
scalar ws21_network.statistics 	hdistance 	2.893420878969
scalar ws21_network.statistics 	avg_time 	0.011743505744
scalar ws21_network.statistics 	downloads 	534946
scalar ws21_network.statistics 	total_cost 	916001
scalar ws21_network.statistics 	total_replicas 	100000
scalar ws21_network.statistics 	inner_hit 	0.39347149058036
scalar ws21_network.statistics 	interests_sent 	541910
scalar ws21_network.node[0].core_layer 	interests[0] 	0
scalar ws21_network.node[0].core_layer 	data[0] 	0
scalar ws21_network.node[0].core_layer 	repo_int[0] 	324460
scalar ws21_network.node[0].content_store 	p_hit[0] 	-nan
scalar ws21_network.node[0].content_store 	hits[0] 	0
scalar ws21_network.node[0].content_store 	misses[0] 	0
scalar ws21_network.node[0].content_store 	decision_yes[0] 	0
scalar ws21_network.node[0].content_store 	decision_no[0] 	0
scalar ws21_network.node[0].content_store 	decision_ratio[0] 	0
scalar ws21_network.node[0].content_store 	correction_factor[0] 	0.0027225701061802
scalar ws21_network.node[0].content_store 	kappa[0] 	1
scalar ws21_network.node[1].core_layer 	interests[1] 	0
scalar ws21_network.node[1].core_layer 	data[1] 	0
scalar ws21_network.node[1].content_store 	p_hit[1] 	-nan
scalar ws21_network.node[1].content_store 	hits[1] 	0
scalar ws21_network.node[1].content_store 	misses[1] 	0
scalar ws21_network.node[1].content_store 	decision_yes[1] 	0
scalar ws21_network.node[1].content_store 	decision_no[1] 	0
scalar ws21_network.node[1].content_store 	decision_ratio[1] 	0
scalar ws21_network.node[1].content_store 	correction_factor[1] 	0.0027225701061802
scalar ws21_network.node[1].content_store 	kappa[1] 	1
scalar ws21_network.node[2].core_layer 	interests[2] 	23680
scalar ws21_network.node[2].core_layer 	data[2] 	23680
scalar ws21_network.node[2].content_store 	p_hit[2] 	0
scalar ws21_network.node[2].content_store 	hits[2] 	0
scalar ws21_network.node[2].content_store 	misses[2] 	23680
scalar ws21_network.node[2].content_store 	decision_yes[2] 	0
scalar ws21_network.node[2].content_store 	decision_no[2] 	23680
scalar ws21_network.node[2].content_store 	decision_ratio[2] 	0
scalar ws21_network.node[2].content_store 	correction_factor[2] 	0.0027225701061802
scalar ws21_network.node[2].content_store 	kappa[2] 	1
scalar ws21_network.node[3].core_layer 	interests[3] 	53717
scalar ws21_network.node[3].core_layer 	data[3] 	42454
scalar ws21_network.node[3].content_store 	p_hit[3] 	0.20967291546438
scalar ws21_network.node[3].content_store 	hits[3] 	11263
scalar ws21_network.node[3].content_store 	misses[3] 	42454
scalar ws21_network.node[3].content_store 	decision_yes[3] 	757
scalar ws21_network.node[3].content_store 	decision_no[3] 	41697
scalar ws21_network.node[3].content_store 	decision_ratio[3] 	0.017831064210675
scalar ws21_network.node[3].content_store 	correction_factor[3] 	0.0027225701061802
scalar ws21_network.node[3].content_store 	kappa[3] 	1
scalar ws21_network.node[4].core_layer 	interests[4] 	126581
scalar ws21_network.node[4].core_layer 	repo_load[4] 	82481
scalar ws21_network.node[4].core_layer 	data[4] 	0
scalar ws21_network.node[4].content_store 	p_hit[4] 	0.34839351877454
scalar ws21_network.node[4].content_store 	hits[4] 	44100
scalar ws21_network.node[4].content_store 	misses[4] 	82481
scalar ws21_network.node[4].content_store 	decision_yes[4] 	2282
scalar ws21_network.node[4].content_store 	decision_no[4] 	80199
scalar ws21_network.node[4].content_store 	decision_ratio[4] 	0.027666977849444
scalar ws21_network.node[4].content_store 	correction_factor[4] 	0.0027225701061802
scalar ws21_network.node[4].content_store 	kappa[4] 	1
scalar ws21_network.node[5].core_layer 	interests[5] 	107818
scalar ws21_network.node[5].core_layer 	data[5] 	107818
scalar ws21_network.node[5].content_store 	p_hit[5] 	0
scalar ws21_network.node[5].content_store 	hits[5] 	0
scalar ws21_network.node[5].content_store 	misses[5] 	107818
scalar ws21_network.node[5].content_store 	decision_yes[5] 	0
scalar ws21_network.node[5].content_store 	decision_no[5] 	107818
scalar ws21_network.node[5].content_store 	decision_ratio[5] 	0
scalar ws21_network.node[5].content_store 	correction_factor[5] 	0.0027225701061802
scalar ws21_network.node[5].content_store 	kappa[5] 	1
scalar ws21_network.node[6].core_layer 	interests[6] 	150788
scalar ws21_network.node[6].core_layer 	repo_load[6] 	150788
scalar ws21_network.node[6].core_layer 	data[6] 	0
scalar ws21_network.node[6].content_store 	p_hit[6] 	0
scalar ws21_network.node[6].content_store 	hits[6] 	0
scalar ws21_network.node[6].content_store 	misses[6] 	150788
scalar ws21_network.node[6].content_store 	decision_yes[6] 	0
scalar ws21_network.node[6].content_store 	decision_no[6] 	150788
scalar ws21_network.node[6].content_store 	decision_ratio[6] 	0
scalar ws21_network.node[6].content_store 	correction_factor[6] 	0.0027225701061802
scalar ws21_network.node[6].content_store 	kappa[6] 	1
scalar ws21_network.node[7].core_layer 	interests[7] 	8272
scalar ws21_network.node[7].core_layer 	data[7] 	8272
scalar ws21_network.node[7].content_store 	p_hit[7] 	0
scalar ws21_network.node[7].content_store 	hits[7] 	0
scalar ws21_network.node[7].content_store 	misses[7] 	8272
scalar ws21_network.node[7].content_store 	decision_yes[7] 	0
scalar ws21_network.node[7].content_store 	decision_no[7] 	8272
scalar ws21_network.node[7].content_store 	decision_ratio[7] 	0
scalar ws21_network.node[7].content_store 	correction_factor[7] 	0.0027225701061802
scalar ws21_network.node[7].content_store 	kappa[7] 	1
scalar ws21_network.node[8].core_layer 	interests[8] 	50466
scalar ws21_network.node[8].core_layer 	data[8] 	50465
scalar ws21_network.node[8].content_store 	p_hit[8] 	0
scalar ws21_network.node[8].content_store 	hits[8] 	0
scalar ws21_network.node[8].content_store 	misses[8] 	50466
scalar ws21_network.node[8].content_store 	decision_yes[8] 	0
scalar ws21_network.node[8].content_store 	decision_no[8] 	50465
scalar ws21_network.node[8].content_store 	decision_ratio[8] 	0
scalar ws21_network.node[8].content_store 	correction_factor[8] 	0.0027225701061802
scalar ws21_network.node[8].content_store 	kappa[8] 	1
scalar ws21_network.node[9].core_layer 	interests[9] 	0
scalar ws21_network.node[9].core_layer 	data[9] 	0
scalar ws21_network.node[9].content_store 	p_hit[9] 	-nan
scalar ws21_network.node[9].content_store 	hits[9] 	0
scalar ws21_network.node[9].content_store 	misses[9] 	0
scalar ws21_network.node[9].content_store 	decision_yes[9] 	0
scalar ws21_network.node[9].content_store 	decision_no[9] 	0
scalar ws21_network.node[9].content_store 	decision_ratio[9] 	0
scalar ws21_network.node[9].content_store 	correction_factor[9] 	0.0027225701061802
scalar ws21_network.node[9].content_store 	kappa[9] 	1
scalar ws21_network.node[10].core_layer 	interests[10] 	204877
scalar ws21_network.node[10].core_layer 	data[10] 	179211
scalar ws21_network.node[10].content_store 	p_hit[10] 	0.12229776890525
scalar ws21_network.node[10].content_store 	hits[10] 	25056
scalar ws21_network.node[10].content_store 	misses[10] 	179821
scalar ws21_network.node[10].content_store 	decision_yes[10] 	988
scalar ws21_network.node[10].content_store 	decision_no[10] 	178223
scalar ws21_network.node[10].content_store 	decision_ratio[10] 	0.0055130544442026
scalar ws21_network.node[10].content_store 	correction_factor[10] 	0.0027225701061802
scalar ws21_network.node[10].content_store 	kappa[10] 	1
scalar ws21_network.node[11].core_layer 	interests[11] 	0
scalar ws21_network.node[11].core_layer 	data[11] 	0
scalar ws21_network.node[11].content_store 	p_hit[11] 	-nan
scalar ws21_network.node[11].content_store 	hits[11] 	0
scalar ws21_network.node[11].content_store 	misses[11] 	0
scalar ws21_network.node[11].content_store 	decision_yes[11] 	0
scalar ws21_network.node[11].content_store 	decision_no[11] 	0
scalar ws21_network.node[11].content_store 	decision_ratio[11] 	0
scalar ws21_network.node[11].content_store 	correction_factor[11] 	0.0027225701061802
scalar ws21_network.node[11].content_store 	kappa[11] 	1
scalar ws21_network.node[12].core_layer 	interests[12] 	0
scalar ws21_network.node[12].core_layer 	data[12] 	0
scalar ws21_network.node[12].content_store 	p_hit[12] 	-nan
scalar ws21_network.node[12].content_store 	hits[12] 	0
scalar ws21_network.node[12].content_store 	misses[12] 	0
scalar ws21_network.node[12].content_store 	decision_yes[12] 	0
scalar ws21_network.node[12].content_store 	decision_no[12] 	0
scalar ws21_network.node[12].content_store 	decision_ratio[12] 	0
scalar ws21_network.node[12].content_store 	correction_factor[12] 	0.0027225701061802
scalar ws21_network.node[12].content_store 	kappa[12] 	1
scalar ws21_network.node[13].core_layer 	interests[13] 	0
scalar ws21_network.node[13].core_layer 	data[13] 	0
scalar ws21_network.node[13].content_store 	p_hit[13] 	-nan
scalar ws21_network.node[13].content_store 	hits[13] 	0
scalar ws21_network.node[13].content_store 	misses[13] 	0
scalar ws21_network.node[13].content_store 	decision_yes[13] 	0
scalar ws21_network.node[13].content_store 	decision_no[13] 	0
scalar ws21_network.node[13].content_store 	decision_ratio[13] 	0
scalar ws21_network.node[13].content_store 	correction_factor[13] 	0.0027225701061802
scalar ws21_network.node[13].content_store 	kappa[13] 	1
scalar ws21_network.node[14].core_layer 	interests[14] 	108915
scalar ws21_network.node[14].core_layer 	data[14] 	84127
scalar ws21_network.node[14].content_store 	p_hit[14] 	0.22759032272873
scalar ws21_network.node[14].content_store 	hits[14] 	24788
scalar ws21_network.node[14].content_store 	misses[14] 	84127
scalar ws21_network.node[14].content_store 	decision_yes[14] 	1487
scalar ws21_network.node[14].content_store 	decision_no[14] 	82640
scalar ws21_network.node[14].content_store 	decision_ratio[14] 	0.017675657042329
scalar ws21_network.node[14].content_store 	correction_factor[14] 	0.0027225701061802
scalar ws21_network.node[14].content_store 	kappa[14] 	1
scalar ws21_network.node[15].core_layer 	interests[15] 	0
scalar ws21_network.node[15].core_layer 	data[15] 	0
scalar ws21_network.node[15].content_store 	p_hit[15] 	-nan
scalar ws21_network.node[15].content_store 	hits[15] 	0
scalar ws21_network.node[15].content_store 	misses[15] 	0
scalar ws21_network.node[15].content_store 	decision_yes[15] 	0
scalar ws21_network.node[15].content_store 	decision_no[15] 	0
scalar ws21_network.node[15].content_store 	decision_ratio[15] 	0
scalar ws21_network.node[15].content_store 	correction_factor[15] 	0.0027225701061802
scalar ws21_network.node[15].content_store 	kappa[15] 	1
scalar ws21_network.node[16].core_layer 	interests[16] 	353440
scalar ws21_network.node[16].core_layer 	data[16] 	325977
scalar ws21_network.node[16].content_store 	p_hit[16] 	0.063736419194206
scalar ws21_network.node[16].content_store 	hits[16] 	22527
scalar ws21_network.node[16].content_store 	misses[16] 	330913
scalar ws21_network.node[16].content_store 	decision_yes[16] 	1762
scalar ws21_network.node[16].content_store 	decision_no[16] 	324215
scalar ws21_network.node[16].content_store 	decision_ratio[16] 	0.0054052893302288
scalar ws21_network.node[16].content_store 	correction_factor[16] 	0.0027225701061802
scalar ws21_network.node[16].content_store 	kappa[16] 	1
scalar ws21_network.node[17].core_layer 	interests[17] 	132989
scalar ws21_network.node[17].core_layer 	repo_load[17] 	91191
scalar ws21_network.node[17].core_layer 	data[17] 	0
scalar ws21_network.node[17].content_store 	p_hit[17] 	0.31429667115325
scalar ws21_network.node[17].content_store 	hits[17] 	41798
scalar ws21_network.node[17].content_store 	misses[17] 	91191
scalar ws21_network.node[17].content_store 	decision_yes[17] 	283
scalar ws21_network.node[17].content_store 	decision_no[17] 	90908
scalar ws21_network.node[17].content_store 	decision_ratio[17] 	0.0031033764296915
scalar ws21_network.node[17].content_store 	correction_factor[17] 	0.0027225701061802
scalar ws21_network.node[17].content_store 	kappa[17] 	1
scalar ws21_network.node[18].core_layer 	interests[18] 	0
scalar ws21_network.node[18].core_layer 	data[18] 	0
scalar ws21_network.node[18].content_store 	p_hit[18] 	-nan
scalar ws21_network.node[18].content_store 	hits[18] 	0
scalar ws21_network.node[18].content_store 	misses[18] 	0
scalar ws21_network.node[18].content_store 	decision_yes[18] 	0
scalar ws21_network.node[18].content_store 	decision_no[18] 	0
scalar ws21_network.node[18].content_store 	decision_ratio[18] 	0
scalar ws21_network.node[18].content_store 	correction_factor[18] 	0.0027225701061802
scalar ws21_network.node[18].content_store 	kappa[18] 	1
scalar ws21_network.node[19].core_layer 	interests[19] 	189607
scalar ws21_network.node[19].core_layer 	data[19] 	173905
scalar ws21_network.node[19].content_store 	p_hit[19] 	0.069232676008797
scalar ws21_network.node[19].content_store 	hits[19] 	13127
scalar ws21_network.node[19].content_store 	misses[19] 	176480
scalar ws21_network.node[19].content_store 	decision_yes[19] 	830
scalar ws21_network.node[19].content_store 	decision_no[19] 	173075
scalar ws21_network.node[19].content_store 	decision_ratio[19] 	0.0047727207383341
scalar ws21_network.node[19].content_store 	correction_factor[19] 	0.0027225701061802
scalar ws21_network.node[19].content_store 	kappa[19] 	1
scalar ws21_network.node[20].core_layer 	interests[20] 	50466
scalar ws21_network.node[20].core_layer 	data[20] 	50465
scalar ws21_network.node[20].content_store 	p_hit[20] 	0
scalar ws21_network.node[20].content_store 	hits[20] 	0
scalar ws21_network.node[20].content_store 	misses[20] 	50466
scalar ws21_network.node[20].content_store 	decision_yes[20] 	0
scalar ws21_network.node[20].content_store 	decision_no[20] 	50465
scalar ws21_network.node[20].content_store 	decision_ratio[20] 	0
scalar ws21_network.node[20].content_store 	correction_factor[20] 	0.0027225701061802
scalar ws21_network.node[20].content_store 	kappa[20] 	1
scalar ws21_network.node[21].core_layer 	interests[21] 	196881
scalar ws21_network.node[21].core_layer 	data[21] 	170212
scalar ws21_network.node[21].content_store 	p_hit[21] 	0.12232770048913
scalar ws21_network.node[21].content_store 	hits[21] 	24084
scalar ws21_network.node[21].content_store 	misses[21] 	172797
scalar ws21_network.node[21].content_store 	decision_yes[21] 	775
scalar ws21_network.node[21].content_store 	decision_no[21] 	169437
scalar ws21_network.node[21].content_store 	decision_ratio[21] 	0.0045531454891547
scalar ws21_network.node[21].content_store 	correction_factor[21] 	0.0027225701061802
scalar ws21_network.node[21].content_store 	kappa[21] 	1
scalar ws21_network.client[16] 	hdistance[16] 	2.4002244542955
scalar ws21_network.client[16] 	downloads[16] 	178210
scalar ws21_network.client[16] 	avg_time[16] 	0.009215229315
scalar ws21_network.client[16] 	interests_sent[16] 	180014
scalar ws21_network.client[19] 	hdistance[19] 	3.2691923780043
scalar ws21_network.client[19] 	downloads[19] 	178326
scalar ws21_network.client[19] 	avg_time[19] 	0.013642241512
scalar ws21_network.client[19] 	interests_sent[19] 	180901
scalar ws21_network.client[21] 	hdistance[21] 	3.0108458046073
scalar ws21_network.client[21] 	downloads[21] 	178410
scalar ws21_network.client[21] 	avg_time[21] 	0.012373046405
scalar ws21_network.client[21] 	interests_sent[21] 	180995
