version 2
run General-3-20141031-11:24:45-25687
attr D costaware0.01
attr F nrr
attr R lru
attr a 1
attr configname General
attr csize 1e3
attr ctlg 1e5
attr datetime 20141031-11:24:45
attr experiment General
attr inifile omnetpp.ini
attr iterationvars "$rep=15, $lambda=100, $a=1, $ctlg=1e5, $F=nrr, $ttl=10, $D=costaware0.01, $R=lru, $csize=1e3, $window=60, $variance=0.05, $mytime=1800, $kappa=1, $priceratiovalue=10, $pricebits=0"
attr iterationvars2 "$rep=15, $lambda=100, $a=1, $ctlg=1e5, $F=nrr, $ttl=10, $D=costaware0.01, $R=lru, $csize=1e3, $window=60, $variance=0.05, $mytime=1800, $kappa=1, $priceratiovalue=10, $pricebits=0, $repetition=0"
attr kappa 1
attr lambda 100
attr measurement "$rep=15, $lambda=100, $a=1, $ctlg=1e5, $F=nrr, $ttl=10, $D=costaware0.01, $R=lru, $csize=1e3, $window=60, $variance=0.05, $mytime=1800, $kappa=1, $priceratiovalue=10, $pricebits=0"
attr mytime 1800
attr network networks.ws${rep}_network
attr pricebits 0
attr priceratiovalue 10
attr processid 25687
attr rep 15
attr repetition 0
attr replication #0
attr resultdir results
attr runnumber 3
attr seedset 15
attr ttl 10
attr variance 0.05
attr window 60

scalar . 	a 	1
scalar . 	csize 	1e3
scalar . 	ctlg 	1e5
scalar . 	kappa 	1
scalar . 	lambda 	100
scalar . 	mytime 	1800
scalar . 	pricebits 	0
scalar . 	priceratiovalue 	10
scalar . 	rep 	15
scalar . 	ttl 	10
scalar . 	variance 	0.05
scalar . 	window 	60
scalar ws15_network.content_distribution 	repo-0 	5
scalar ws15_network.content_distribution 	repo-1 	8
scalar ws15_network.content_distribution 	repo-2 	20
scalar ws15_network.content_distribution 	client-0 	19
scalar ws15_network.content_distribution 	client-1 	18
scalar ws15_network.content_distribution 	client-2 	11
scalar ws15_network.content_distribution 	repo-0_card 	33352
scalar ws15_network.content_distribution 	repo-0_price 	1
scalar ws15_network.content_distribution 	repo-1_card 	33287
scalar ws15_network.content_distribution 	repo-1_price 	0
scalar ws15_network.content_distribution 	repo-2_card 	33361
scalar ws15_network.content_distribution 	repo-2_price 	10
scalar ws15_network.statistics 	repo_popularity[0] 	0.39661812235512
scalar ws15_network.statistics 	repo_popularity[1] 	0.26899614044563
scalar ws15_network.statistics 	repo_popularity[2] 	0.33438573719926
scalar ws15_network.statistics 	stabilization_time 	36060
scalar ws15_network.statistics 	p_hit 	0.156045544502
scalar ws15_network.statistics 	interests 	60061.136363636
scalar ws15_network.statistics 	data 	35540.681818182
scalar ws15_network.statistics 	hdistance 	2.074699986488
scalar ws15_network.statistics 	avg_time 	0.007541514972
scalar ws15_network.statistics 	downloads 	535946
scalar ws15_network.statistics 	total_cost 	988326
scalar ws15_network.statistics 	total_replicas 	100000
scalar ws15_network.statistics 	inner_hit 	0.38485220525949
scalar ws15_network.statistics 	interests_sent 	539446
scalar ws15_network.node[0].core_layer 	interests[0] 	0
scalar ws15_network.node[0].core_layer 	data[0] 	0
scalar ws15_network.node[0].core_layer 	repo_int[0] 	329686
scalar ws15_network.node[0].content_store 	p_hit[0] 	-nan
scalar ws15_network.node[0].content_store 	hits[0] 	0
scalar ws15_network.node[0].content_store 	misses[0] 	0
scalar ws15_network.node[0].content_store 	decision_yes[0] 	0
scalar ws15_network.node[0].content_store 	decision_no[0] 	0
scalar ws15_network.node[0].content_store 	decision_ratio[0] 	0
scalar ws15_network.node[0].content_store 	correction_factor[0] 	0.0027225701061802
scalar ws15_network.node[0].content_store 	kappa[0] 	1
scalar ws15_network.node[1].core_layer 	interests[1] 	0
scalar ws15_network.node[1].core_layer 	data[1] 	0
scalar ws15_network.node[1].content_store 	p_hit[1] 	-nan
scalar ws15_network.node[1].content_store 	hits[1] 	0
scalar ws15_network.node[1].content_store 	misses[1] 	0
scalar ws15_network.node[1].content_store 	decision_yes[1] 	0
scalar ws15_network.node[1].content_store 	decision_no[1] 	0
scalar ws15_network.node[1].content_store 	decision_ratio[1] 	0
scalar ws15_network.node[1].content_store 	correction_factor[1] 	0.0027225701061802
scalar ws15_network.node[1].content_store 	kappa[1] 	1
scalar ws15_network.node[2].core_layer 	interests[2] 	0
scalar ws15_network.node[2].core_layer 	data[2] 	0
scalar ws15_network.node[2].content_store 	p_hit[2] 	-nan
scalar ws15_network.node[2].content_store 	hits[2] 	0
scalar ws15_network.node[2].content_store 	misses[2] 	0
scalar ws15_network.node[2].content_store 	decision_yes[2] 	0
scalar ws15_network.node[2].content_store 	decision_no[2] 	0
scalar ws15_network.node[2].content_store 	decision_ratio[2] 	0
scalar ws15_network.node[2].content_store 	correction_factor[2] 	0.0027225701061802
scalar ws15_network.node[2].content_store 	kappa[2] 	1
scalar ws15_network.node[3].core_layer 	interests[3] 	183871
scalar ws15_network.node[3].core_layer 	data[3] 	169572
scalar ws15_network.node[3].content_store 	p_hit[3] 	0.077374898706158
scalar ws15_network.node[3].content_store 	hits[3] 	14227
scalar ws15_network.node[3].content_store 	misses[3] 	169644
scalar ws15_network.node[3].content_store 	decision_yes[3] 	146
scalar ws15_network.node[3].content_store 	decision_no[3] 	169426
scalar ws15_network.node[3].content_store 	decision_ratio[3] 	0.00086099120137759
scalar ws15_network.node[3].content_store 	correction_factor[3] 	0.0027225701061802
scalar ws15_network.node[3].content_store 	kappa[3] 	1
scalar ws15_network.node[4].core_layer 	interests[4] 	0
scalar ws15_network.node[4].core_layer 	data[4] 	0
scalar ws15_network.node[4].content_store 	p_hit[4] 	-nan
scalar ws15_network.node[4].content_store 	hits[4] 	0
scalar ws15_network.node[4].content_store 	misses[4] 	0
scalar ws15_network.node[4].content_store 	decision_yes[4] 	0
scalar ws15_network.node[4].content_store 	decision_no[4] 	0
scalar ws15_network.node[4].content_store 	decision_ratio[4] 	0
scalar ws15_network.node[4].content_store 	correction_factor[4] 	0.0027225701061802
scalar ws15_network.node[4].content_store 	kappa[4] 	1
scalar ws15_network.node[5].core_layer 	interests[5] 	131303
scalar ws15_network.node[5].core_layer 	repo_load[5] 	95106
scalar ws15_network.node[5].core_layer 	data[5] 	574
scalar ws15_network.node[5].content_store 	p_hit[5] 	0.27130377828382
scalar ws15_network.node[5].content_store 	hits[5] 	35623
scalar ws15_network.node[5].content_store 	misses[5] 	95680
scalar ws15_network.node[5].content_store 	decision_yes[5] 	247
scalar ws15_network.node[5].content_store 	decision_no[5] 	95433
scalar ws15_network.node[5].content_store 	decision_ratio[5] 	0.0025815217391304
scalar ws15_network.node[5].content_store 	correction_factor[5] 	0.0027225701061802
scalar ws15_network.node[5].content_store 	kappa[5] 	1
scalar ws15_network.node[6].core_layer 	interests[6] 	0
scalar ws15_network.node[6].core_layer 	data[6] 	0
scalar ws15_network.node[6].content_store 	p_hit[6] 	-nan
scalar ws15_network.node[6].content_store 	hits[6] 	0
scalar ws15_network.node[6].content_store 	misses[6] 	0
scalar ws15_network.node[6].content_store 	decision_yes[6] 	0
scalar ws15_network.node[6].content_store 	decision_no[6] 	0
scalar ws15_network.node[6].content_store 	decision_ratio[6] 	0
scalar ws15_network.node[6].content_store 	correction_factor[6] 	0.0027225701061802
scalar ws15_network.node[6].content_store 	kappa[6] 	1
scalar ws15_network.node[7].core_layer 	interests[7] 	0
scalar ws15_network.node[7].core_layer 	data[7] 	0
scalar ws15_network.node[7].content_store 	p_hit[7] 	-nan
scalar ws15_network.node[7].content_store 	hits[7] 	0
scalar ws15_network.node[7].content_store 	misses[7] 	0
scalar ws15_network.node[7].content_store 	decision_yes[7] 	0
scalar ws15_network.node[7].content_store 	decision_no[7] 	0
scalar ws15_network.node[7].content_store 	decision_ratio[7] 	0
scalar ws15_network.node[7].content_store 	correction_factor[7] 	0.0027225701061802
scalar ws15_network.node[7].content_store 	kappa[7] 	1
scalar ws15_network.node[8].core_layer 	interests[8] 	193604
scalar ws15_network.node[8].core_layer 	repo_load[8] 	145258
scalar ws15_network.node[8].core_layer 	data[8] 	34241
scalar ws15_network.node[8].content_store 	p_hit[8] 	0.072849734509618
scalar ws15_network.node[8].content_store 	hits[8] 	14104
scalar ws15_network.node[8].content_store 	misses[8] 	179500
scalar ws15_network.node[8].content_store 	decision_yes[8] 	771
scalar ws15_network.node[8].content_store 	decision_no[8] 	178728
scalar ws15_network.node[8].content_store 	decision_ratio[8] 	0.0042952885531396
scalar ws15_network.node[8].content_store 	correction_factor[8] 	0.0027225701061802
scalar ws15_network.node[8].content_store 	kappa[8] 	1
scalar ws15_network.node[9].core_layer 	interests[9] 	34241
scalar ws15_network.node[9].core_layer 	data[9] 	32751
scalar ws15_network.node[9].content_store 	p_hit[9] 	0.043515084255717
scalar ws15_network.node[9].content_store 	hits[9] 	1490
scalar ws15_network.node[9].content_store 	misses[9] 	32751
scalar ws15_network.node[9].content_store 	decision_yes[9] 	788
scalar ws15_network.node[9].content_store 	decision_no[9] 	31963
scalar ws15_network.node[9].content_store 	decision_ratio[9] 	0.024060334035602
scalar ws15_network.node[9].content_store 	correction_factor[9] 	0.0027225701061802
scalar ws15_network.node[9].content_store 	kappa[9] 	1
scalar ws15_network.node[10].core_layer 	interests[10] 	0
scalar ws15_network.node[10].core_layer 	data[10] 	0
scalar ws15_network.node[10].content_store 	p_hit[10] 	-nan
scalar ws15_network.node[10].content_store 	hits[10] 	0
scalar ws15_network.node[10].content_store 	misses[10] 	0
scalar ws15_network.node[10].content_store 	decision_yes[10] 	0
scalar ws15_network.node[10].content_store 	decision_no[10] 	0
scalar ws15_network.node[10].content_store 	decision_ratio[10] 	0
scalar ws15_network.node[10].content_store 	correction_factor[10] 	0.0027225701061802
scalar ws15_network.node[10].content_store 	kappa[10] 	1
scalar ws15_network.node[11].core_layer 	interests[11] 	182623
scalar ws15_network.node[11].core_layer 	data[11] 	160692
scalar ws15_network.node[11].content_store 	p_hit[11] 	0.11205050842446
scalar ws15_network.node[11].content_store 	hits[11] 	20463
scalar ws15_network.node[11].content_store 	misses[11] 	162160
scalar ws15_network.node[11].content_store 	decision_yes[11] 	928
scalar ws15_network.node[11].content_store 	decision_no[11] 	159764
scalar ws15_network.node[11].content_store 	decision_ratio[11] 	0.0057750230254151
scalar ws15_network.node[11].content_store 	correction_factor[11] 	0.0027225701061802
scalar ws15_network.node[11].content_store 	kappa[11] 	1
scalar ws15_network.node[12].core_layer 	interests[12] 	53308
scalar ws15_network.node[12].core_layer 	data[12] 	53307
scalar ws15_network.node[12].content_store 	p_hit[12] 	0
scalar ws15_network.node[12].content_store 	hits[12] 	0
scalar ws15_network.node[12].content_store 	misses[12] 	53308
scalar ws15_network.node[12].content_store 	decision_yes[12] 	0
scalar ws15_network.node[12].content_store 	decision_no[12] 	53307
scalar ws15_network.node[12].content_store 	decision_ratio[12] 	0
scalar ws15_network.node[12].content_store 	correction_factor[12] 	0.0027225701061802
scalar ws15_network.node[12].content_store 	kappa[12] 	1
scalar ws15_network.node[13].core_layer 	interests[13] 	0
scalar ws15_network.node[13].core_layer 	data[13] 	0
scalar ws15_network.node[13].content_store 	p_hit[13] 	-nan
scalar ws15_network.node[13].content_store 	hits[13] 	0
scalar ws15_network.node[13].content_store 	misses[13] 	0
scalar ws15_network.node[13].content_store 	decision_yes[13] 	0
scalar ws15_network.node[13].content_store 	decision_no[13] 	0
scalar ws15_network.node[13].content_store 	decision_ratio[13] 	0
scalar ws15_network.node[13].content_store 	correction_factor[13] 	0.0027225701061802
scalar ws15_network.node[13].content_store 	kappa[13] 	1
scalar ws15_network.node[14].core_layer 	interests[14] 	0
scalar ws15_network.node[14].core_layer 	data[14] 	0
scalar ws15_network.node[14].content_store 	p_hit[14] 	-nan
scalar ws15_network.node[14].content_store 	hits[14] 	0
scalar ws15_network.node[14].content_store 	misses[14] 	0
scalar ws15_network.node[14].content_store 	decision_yes[14] 	0
scalar ws15_network.node[14].content_store 	decision_no[14] 	0
scalar ws15_network.node[14].content_store 	decision_ratio[14] 	0
scalar ws15_network.node[14].content_store 	correction_factor[14] 	0.0027225701061802
scalar ws15_network.node[14].content_store 	kappa[14] 	1
scalar ws15_network.node[15].core_layer 	interests[15] 	0
scalar ws15_network.node[15].core_layer 	data[15] 	0
scalar ws15_network.node[15].content_store 	p_hit[15] 	-nan
scalar ws15_network.node[15].content_store 	hits[15] 	0
scalar ws15_network.node[15].content_store 	misses[15] 	0
scalar ws15_network.node[15].content_store 	decision_yes[15] 	0
scalar ws15_network.node[15].content_store 	decision_no[15] 	0
scalar ws15_network.node[15].content_store 	decision_ratio[15] 	0
scalar ws15_network.node[15].content_store 	correction_factor[15] 	0.0027225701061802
scalar ws15_network.node[15].content_store 	kappa[15] 	1
scalar ws15_network.node[16].core_layer 	interests[16] 	0
scalar ws15_network.node[16].core_layer 	data[16] 	0
scalar ws15_network.node[16].content_store 	p_hit[16] 	-nan
scalar ws15_network.node[16].content_store 	hits[16] 	0
scalar ws15_network.node[16].content_store 	misses[16] 	0
scalar ws15_network.node[16].content_store 	decision_yes[16] 	0
scalar ws15_network.node[16].content_store 	decision_no[16] 	0
scalar ws15_network.node[16].content_store 	decision_ratio[16] 	0
scalar ws15_network.node[16].content_store 	correction_factor[16] 	0.0027225701061802
scalar ws15_network.node[16].content_store 	kappa[16] 	1
scalar ws15_network.node[17].core_layer 	interests[17] 	0
scalar ws15_network.node[17].core_layer 	data[17] 	0
scalar ws15_network.node[17].content_store 	p_hit[17] 	-nan
scalar ws15_network.node[17].content_store 	hits[17] 	0
scalar ws15_network.node[17].content_store 	misses[17] 	0
scalar ws15_network.node[17].content_store 	decision_yes[17] 	0
scalar ws15_network.node[17].content_store 	decision_no[17] 	0
scalar ws15_network.node[17].content_store 	decision_ratio[17] 	0
scalar ws15_network.node[17].content_store 	correction_factor[17] 	0.0027225701061802
scalar ws15_network.node[17].content_store 	kappa[17] 	1
scalar ws15_network.node[18].core_layer 	interests[18] 	224868
scalar ws15_network.node[18].core_layer 	data[18] 	147678
scalar ws15_network.node[18].content_store 	p_hit[18] 	0.34174715833289
scalar ws15_network.node[18].content_store 	hits[18] 	76848
scalar ws15_network.node[18].content_store 	misses[18] 	148020
scalar ws15_network.node[18].content_store 	decision_yes[18] 	929
scalar ws15_network.node[18].content_store 	decision_no[18] 	146749
scalar ws15_network.node[18].content_store 	decision_ratio[18] 	0.0062907135795447
scalar ws15_network.node[18].content_store 	correction_factor[18] 	0.0027225701061802
scalar ws15_network.node[18].content_store 	kappa[18] 	1
scalar ws15_network.node[19].core_layer 	interests[19] 	183237
scalar ws15_network.node[19].core_layer 	data[19] 	165294
scalar ws15_network.node[19].content_store 	p_hit[19] 	0.088699334741346
scalar ws15_network.node[19].content_store 	hits[19] 	16253
scalar ws15_network.node[19].content_store 	misses[19] 	166984
scalar ws15_network.node[19].content_store 	decision_yes[19] 	896
scalar ws15_network.node[19].content_store 	decision_no[19] 	164398
scalar ws15_network.node[19].content_store 	decision_ratio[19] 	0.0054206444275049
scalar ws15_network.node[19].content_store 	correction_factor[19] 	0.0027225701061802
scalar ws15_network.node[19].content_store 	kappa[19] 	1
scalar ws15_network.node[20].core_layer 	interests[20] 	134290
scalar ws15_network.node[20].core_layer 	repo_load[20] 	89322
scalar ws15_network.node[20].core_layer 	data[20] 	17786
scalar ws15_network.node[20].content_store 	p_hit[20] 	0.20241268895674
scalar ws15_network.node[20].content_store 	hits[20] 	27182
scalar ws15_network.node[20].content_store 	misses[20] 	107108
scalar ws15_network.node[20].content_store 	decision_yes[20] 	2456
scalar ws15_network.node[20].content_store 	decision_no[20] 	104652
scalar ws15_network.node[20].content_store 	decision_ratio[20] 	0.022930126601188
scalar ws15_network.node[20].content_store 	correction_factor[20] 	0.0027225701061802
scalar ws15_network.node[20].content_store 	kappa[20] 	1
scalar ws15_network.node[21].core_layer 	interests[21] 	0
scalar ws15_network.node[21].core_layer 	data[21] 	0
scalar ws15_network.node[21].content_store 	p_hit[21] 	-nan
scalar ws15_network.node[21].content_store 	hits[21] 	0
scalar ws15_network.node[21].content_store 	misses[21] 	0
scalar ws15_network.node[21].content_store 	decision_yes[21] 	0
scalar ws15_network.node[21].content_store 	decision_no[21] 	0
scalar ws15_network.node[21].content_store 	decision_ratio[21] 	0
scalar ws15_network.node[21].content_store 	correction_factor[21] 	0.0027225701061802
scalar ws15_network.node[21].content_store 	kappa[21] 	1
scalar ws15_network.client[11] 	hdistance[11] 	1.9246442921428
scalar ws15_network.client[11] 	downloads[11] 	178447
scalar ws15_network.client[11] 	avg_time[11] 	0.006651418822
scalar ws15_network.client[11] 	interests_sent[11] 	179915
scalar ws15_network.client[18] 	hdistance[18] 	1.9883046792411
scalar ws15_network.client[18] 	downloads[18] 	179730
scalar ws15_network.client[18] 	avg_time[18] 	0.007158213452
scalar ws15_network.client[18] 	interests_sent[18] 	180072
scalar ws15_network.client[19] 	hdistance[19] 	2.31115098808
scalar ws15_network.client[19] 	downloads[19] 	177769
scalar ws15_network.client[19] 	avg_time[19] 	0.008814912642
scalar ws15_network.client[19] 	interests_sent[19] 	179459
