version 2
run General-3-20141031-12:20:13-18217
attr D costaware0.01
attr F nrr
attr R lru
attr a 1
attr configname General
attr csize 1e3
attr ctlg 1e5
attr datetime 20141031-12:20:13
attr experiment General
attr inifile omnetpp.ini
attr iterationvars "$rep=19, $lambda=100, $a=1, $ctlg=1e5, $F=nrr, $ttl=10, $D=costaware0.01, $R=lru, $csize=1e3, $window=60, $variance=0.05, $mytime=1800, $kappa=1, $priceratiovalue=10, $pricebits=0"
attr iterationvars2 "$rep=19, $lambda=100, $a=1, $ctlg=1e5, $F=nrr, $ttl=10, $D=costaware0.01, $R=lru, $csize=1e3, $window=60, $variance=0.05, $mytime=1800, $kappa=1, $priceratiovalue=10, $pricebits=0, $repetition=0"
attr kappa 1
attr lambda 100
attr measurement "$rep=19, $lambda=100, $a=1, $ctlg=1e5, $F=nrr, $ttl=10, $D=costaware0.01, $R=lru, $csize=1e3, $window=60, $variance=0.05, $mytime=1800, $kappa=1, $priceratiovalue=10, $pricebits=0"
attr mytime 1800
attr network networks.ws${rep}_network
attr pricebits 0
attr priceratiovalue 10
attr processid 18217
attr rep 19
attr repetition 0
attr replication #0
attr resultdir results
attr runnumber 3
attr seedset 19
attr ttl 10
attr variance 0.05
attr window 60

scalar . 	a 	1
scalar . 	csize 	1e3
scalar . 	ctlg 	1e5
scalar . 	kappa 	1
scalar . 	lambda 	100
scalar . 	mytime 	1800
scalar . 	pricebits 	0
scalar . 	priceratiovalue 	10
scalar . 	rep 	19
scalar . 	ttl 	10
scalar . 	variance 	0.05
scalar . 	window 	60
scalar ws19_network.content_distribution 	repo-0 	3
scalar ws19_network.content_distribution 	repo-1 	0
scalar ws19_network.content_distribution 	repo-2 	14
scalar ws19_network.content_distribution 	client-0 	3
scalar ws19_network.content_distribution 	client-1 	20
scalar ws19_network.content_distribution 	client-2 	1
scalar ws19_network.content_distribution 	repo-0_card 	33373
scalar ws19_network.content_distribution 	repo-0_price 	10
scalar ws19_network.content_distribution 	repo-1_card 	33385
scalar ws19_network.content_distribution 	repo-1_price 	1
scalar ws19_network.content_distribution 	repo-2_card 	33242
scalar ws19_network.content_distribution 	repo-2_price 	0
scalar ws19_network.statistics 	repo_popularity[0] 	0.41183223595039
scalar ws19_network.statistics 	repo_popularity[1] 	0.29096057586331
scalar ws19_network.statistics 	repo_popularity[2] 	0.29720718818631
scalar ws19_network.statistics 	stabilization_time 	36060
scalar ws19_network.statistics 	p_hit 	0.13005263771241
scalar ws19_network.statistics 	interests 	64747.909090909
scalar ws19_network.statistics 	data 	40177.772727273
scalar ws19_network.statistics 	hdistance 	2.2994151445995
scalar ws19_network.statistics 	avg_time 	0.008501095768
scalar ws19_network.statistics 	downloads 	537792
scalar ws19_network.statistics 	total_cost 	1045535
scalar ws19_network.statistics 	total_replicas 	100000
scalar ws19_network.statistics 	inner_hit 	0.34492889444246
scalar ws19_network.statistics 	interests_sent 	540543
scalar ws19_network.node[0].core_layer 	interests[0] 	257998
scalar ws19_network.node[0].core_layer 	repo_load[0] 	97455
scalar ws19_network.node[0].core_layer 	data[0] 	126263
scalar ws19_network.node[0].core_layer 	repo_int[0] 	352292
scalar ws19_network.node[0].content_store 	p_hit[0] 	0.13223358320607
scalar ws19_network.node[0].content_store 	hits[0] 	34116
scalar ws19_network.node[0].content_store 	misses[0] 	223882
scalar ws19_network.node[0].content_store 	decision_yes[0] 	270
scalar ws19_network.node[0].content_store 	decision_no[0] 	223448
scalar ws19_network.node[0].content_store 	decision_ratio[0] 	0.001206876514183
scalar ws19_network.node[0].content_store 	correction_factor[0] 	0.0027225701061802
scalar ws19_network.node[0].content_store 	kappa[0] 	1
scalar ws19_network.node[1].core_layer 	interests[1] 	235857
scalar ws19_network.node[1].core_layer 	data[1] 	213795
scalar ws19_network.node[1].content_store 	p_hit[1] 	0.085445842184035
scalar ws19_network.node[1].content_store 	hits[1] 	20153
scalar ws19_network.node[1].content_store 	misses[1] 	215704
scalar ws19_network.node[1].content_store 	decision_yes[1] 	986
scalar ws19_network.node[1].content_store 	decision_no[1] 	212809
scalar ws19_network.node[1].content_store 	decision_ratio[1] 	0.004611894571903
scalar ws19_network.node[1].content_store 	correction_factor[1] 	0.0027225701061802
scalar ws19_network.node[1].content_store 	kappa[1] 	1
scalar ws19_network.node[2].core_layer 	interests[2] 	3030
scalar ws19_network.node[2].core_layer 	data[2] 	3030
scalar ws19_network.node[2].content_store 	p_hit[2] 	0
scalar ws19_network.node[2].content_store 	hits[2] 	0
scalar ws19_network.node[2].content_store 	misses[2] 	3030
scalar ws19_network.node[2].content_store 	decision_yes[2] 	0
scalar ws19_network.node[2].content_store 	decision_no[2] 	3030
scalar ws19_network.node[2].content_store 	decision_ratio[2] 	0
scalar ws19_network.node[2].content_store 	correction_factor[2] 	0.0027225701061802
scalar ws19_network.node[2].content_store 	kappa[2] 	1
scalar ws19_network.node[3].core_layer 	interests[3] 	266534
scalar ws19_network.node[3].core_layer 	repo_load[3] 	94808
scalar ws19_network.node[3].core_layer 	data[3] 	105397
scalar ws19_network.node[3].content_store 	p_hit[3] 	0.24727802081536
scalar ws19_network.node[3].content_store 	hits[3] 	65908
scalar ws19_network.node[3].content_store 	misses[3] 	200626
scalar ws19_network.node[3].content_store 	decision_yes[3] 	2679
scalar ws19_network.node[3].content_store 	decision_no[3] 	197526
scalar ws19_network.node[3].content_store 	decision_ratio[3] 	0.013381284183712
scalar ws19_network.node[3].content_store 	correction_factor[3] 	0.0027225701061802
scalar ws19_network.node[3].content_store 	kappa[3] 	1
scalar ws19_network.node[4].core_layer 	interests[4] 	108997
scalar ws19_network.node[4].core_layer 	data[4] 	99139
scalar ws19_network.node[4].content_store 	p_hit[4] 	0.090442856225401
scalar ws19_network.node[4].content_store 	hits[4] 	9858
scalar ws19_network.node[4].content_store 	misses[4] 	99139
scalar ws19_network.node[4].content_store 	decision_yes[4] 	878
scalar ws19_network.node[4].content_store 	decision_no[4] 	98261
scalar ws19_network.node[4].content_store 	decision_ratio[4] 	0.0088562523325835
scalar ws19_network.node[4].content_store 	correction_factor[4] 	0.0027225701061802
scalar ws19_network.node[4].content_store 	kappa[4] 	1
scalar ws19_network.node[5].core_layer 	interests[5] 	98714
scalar ws19_network.node[5].core_layer 	data[5] 	91583
scalar ws19_network.node[5].content_store 	p_hit[5] 	0.072238993455842
scalar ws19_network.node[5].content_store 	hits[5] 	7131
scalar ws19_network.node[5].content_store 	misses[5] 	91583
scalar ws19_network.node[5].content_store 	decision_yes[5] 	735
scalar ws19_network.node[5].content_store 	decision_no[5] 	90848
scalar ws19_network.node[5].content_store 	decision_ratio[5] 	0.0080255069172226
scalar ws19_network.node[5].content_store 	correction_factor[5] 	0.0027225701061802
scalar ws19_network.node[5].content_store 	kappa[5] 	1
scalar ws19_network.node[6].core_layer 	interests[6] 	47271
scalar ws19_network.node[6].core_layer 	data[6] 	42253
scalar ws19_network.node[6].content_store 	p_hit[6] 	0.10615387869941
scalar ws19_network.node[6].content_store 	hits[6] 	5018
scalar ws19_network.node[6].content_store 	misses[6] 	42253
scalar ws19_network.node[6].content_store 	decision_yes[6] 	762
scalar ws19_network.node[6].content_store 	decision_no[6] 	41491
scalar ws19_network.node[6].content_store 	decision_ratio[6] 	0.018034222422077
scalar ws19_network.node[6].content_store 	correction_factor[6] 	0.0027225701061802
scalar ws19_network.node[6].content_store 	kappa[6] 	1
scalar ws19_network.node[7].core_layer 	interests[7] 	0
scalar ws19_network.node[7].core_layer 	data[7] 	0
scalar ws19_network.node[7].content_store 	p_hit[7] 	-nan
scalar ws19_network.node[7].content_store 	hits[7] 	0
scalar ws19_network.node[7].content_store 	misses[7] 	0
scalar ws19_network.node[7].content_store 	decision_yes[7] 	0
scalar ws19_network.node[7].content_store 	decision_no[7] 	0
scalar ws19_network.node[7].content_store 	decision_ratio[7] 	0
scalar ws19_network.node[7].content_store 	correction_factor[7] 	0.0027225701061802
scalar ws19_network.node[7].content_store 	kappa[7] 	1
scalar ws19_network.node[8].core_layer 	interests[8] 	0
scalar ws19_network.node[8].core_layer 	data[8] 	0
scalar ws19_network.node[8].content_store 	p_hit[8] 	-nan
scalar ws19_network.node[8].content_store 	hits[8] 	0
scalar ws19_network.node[8].content_store 	misses[8] 	0
scalar ws19_network.node[8].content_store 	decision_yes[8] 	0
scalar ws19_network.node[8].content_store 	decision_no[8] 	0
scalar ws19_network.node[8].content_store 	decision_ratio[8] 	0
scalar ws19_network.node[8].content_store 	correction_factor[8] 	0.0027225701061802
scalar ws19_network.node[8].content_store 	kappa[8] 	1
scalar ws19_network.node[9].core_layer 	interests[9] 	53431
scalar ws19_network.node[9].core_layer 	data[9] 	53431
scalar ws19_network.node[9].content_store 	p_hit[9] 	0
scalar ws19_network.node[9].content_store 	hits[9] 	0
scalar ws19_network.node[9].content_store 	misses[9] 	53431
scalar ws19_network.node[9].content_store 	decision_yes[9] 	0
scalar ws19_network.node[9].content_store 	decision_no[9] 	53431
scalar ws19_network.node[9].content_store 	decision_ratio[9] 	0
scalar ws19_network.node[9].content_store 	correction_factor[9] 	0.0027225701061802
scalar ws19_network.node[9].content_store 	kappa[9] 	1
scalar ws19_network.node[10].core_layer 	interests[10] 	0
scalar ws19_network.node[10].core_layer 	data[10] 	0
scalar ws19_network.node[10].content_store 	p_hit[10] 	-nan
scalar ws19_network.node[10].content_store 	hits[10] 	0
scalar ws19_network.node[10].content_store 	misses[10] 	0
scalar ws19_network.node[10].content_store 	decision_yes[10] 	0
scalar ws19_network.node[10].content_store 	decision_no[10] 	0
scalar ws19_network.node[10].content_store 	decision_ratio[10] 	0
scalar ws19_network.node[10].content_store 	correction_factor[10] 	0.0027225701061802
scalar ws19_network.node[10].content_store 	kappa[10] 	1
scalar ws19_network.node[11].core_layer 	interests[11] 	0
scalar ws19_network.node[11].core_layer 	data[11] 	0
scalar ws19_network.node[11].content_store 	p_hit[11] 	-nan
scalar ws19_network.node[11].content_store 	hits[11] 	0
scalar ws19_network.node[11].content_store 	misses[11] 	0
scalar ws19_network.node[11].content_store 	decision_yes[11] 	0
scalar ws19_network.node[11].content_store 	decision_no[11] 	0
scalar ws19_network.node[11].content_store 	decision_ratio[11] 	0
scalar ws19_network.node[11].content_store 	correction_factor[11] 	0.0027225701061802
scalar ws19_network.node[11].content_store 	kappa[11] 	1
scalar ws19_network.node[12].core_layer 	interests[12] 	0
scalar ws19_network.node[12].core_layer 	data[12] 	0
scalar ws19_network.node[12].content_store 	p_hit[12] 	-nan
scalar ws19_network.node[12].content_store 	hits[12] 	0
scalar ws19_network.node[12].content_store 	misses[12] 	0
scalar ws19_network.node[12].content_store 	decision_yes[12] 	0
scalar ws19_network.node[12].content_store 	decision_no[12] 	0
scalar ws19_network.node[12].content_store 	decision_ratio[12] 	0
scalar ws19_network.node[12].content_store 	correction_factor[12] 	0.0027225701061802
scalar ws19_network.node[12].content_store 	kappa[12] 	1
scalar ws19_network.node[13].core_layer 	interests[13] 	0
scalar ws19_network.node[13].core_layer 	data[13] 	0
scalar ws19_network.node[13].content_store 	p_hit[13] 	-nan
scalar ws19_network.node[13].content_store 	hits[13] 	0
scalar ws19_network.node[13].content_store 	misses[13] 	0
scalar ws19_network.node[13].content_store 	decision_yes[13] 	0
scalar ws19_network.node[13].content_store 	decision_no[13] 	0
scalar ws19_network.node[13].content_store 	decision_ratio[13] 	0
scalar ws19_network.node[13].content_store 	correction_factor[13] 	0.0027225701061802
scalar ws19_network.node[13].content_store 	kappa[13] 	1
scalar ws19_network.node[14].core_layer 	interests[14] 	160029
scalar ws19_network.node[14].core_layer 	repo_load[14] 	160029
scalar ws19_network.node[14].core_layer 	data[14] 	0
scalar ws19_network.node[14].content_store 	p_hit[14] 	0
scalar ws19_network.node[14].content_store 	hits[14] 	0
scalar ws19_network.node[14].content_store 	misses[14] 	160029
scalar ws19_network.node[14].content_store 	decision_yes[14] 	0
scalar ws19_network.node[14].content_store 	decision_no[14] 	160029
scalar ws19_network.node[14].content_store 	decision_ratio[14] 	0
scalar ws19_network.node[14].content_store 	correction_factor[14] 	0.0027225701061802
scalar ws19_network.node[14].content_store 	kappa[14] 	1
scalar ws19_network.node[15].core_layer 	interests[15] 	0
scalar ws19_network.node[15].core_layer 	data[15] 	0
scalar ws19_network.node[15].content_store 	p_hit[15] 	-nan
scalar ws19_network.node[15].content_store 	hits[15] 	0
scalar ws19_network.node[15].content_store 	misses[15] 	0
scalar ws19_network.node[15].content_store 	decision_yes[15] 	0
scalar ws19_network.node[15].content_store 	decision_no[15] 	0
scalar ws19_network.node[15].content_store 	decision_ratio[15] 	0
scalar ws19_network.node[15].content_store 	correction_factor[15] 	0.0027225701061802
scalar ws19_network.node[15].content_store 	kappa[15] 	1
scalar ws19_network.node[16].core_layer 	interests[16] 	0
scalar ws19_network.node[16].core_layer 	data[16] 	0
scalar ws19_network.node[16].content_store 	p_hit[16] 	-nan
scalar ws19_network.node[16].content_store 	hits[16] 	0
scalar ws19_network.node[16].content_store 	misses[16] 	0
scalar ws19_network.node[16].content_store 	decision_yes[16] 	0
scalar ws19_network.node[16].content_store 	decision_no[16] 	0
scalar ws19_network.node[16].content_store 	decision_ratio[16] 	0
scalar ws19_network.node[16].content_store 	correction_factor[16] 	0.0027225701061802
scalar ws19_network.node[16].content_store 	kappa[16] 	1
scalar ws19_network.node[17].core_layer 	interests[17] 	0
scalar ws19_network.node[17].core_layer 	data[17] 	0
scalar ws19_network.node[17].content_store 	p_hit[17] 	-nan
scalar ws19_network.node[17].content_store 	hits[17] 	0
scalar ws19_network.node[17].content_store 	misses[17] 	0
scalar ws19_network.node[17].content_store 	decision_yes[17] 	0
scalar ws19_network.node[17].content_store 	decision_no[17] 	0
scalar ws19_network.node[17].content_store 	decision_ratio[17] 	0
scalar ws19_network.node[17].content_store 	correction_factor[17] 	0.0027225701061802
scalar ws19_network.node[17].content_store 	kappa[17] 	1
scalar ws19_network.node[18].core_layer 	interests[18] 	0
scalar ws19_network.node[18].core_layer 	data[18] 	0
scalar ws19_network.node[18].content_store 	p_hit[18] 	-nan
scalar ws19_network.node[18].content_store 	hits[18] 	0
scalar ws19_network.node[18].content_store 	misses[18] 	0
scalar ws19_network.node[18].content_store 	decision_yes[18] 	0
scalar ws19_network.node[18].content_store 	decision_no[18] 	0
scalar ws19_network.node[18].content_store 	decision_ratio[18] 	0
scalar ws19_network.node[18].content_store 	correction_factor[18] 	0.0027225701061802
scalar ws19_network.node[18].content_store 	kappa[18] 	1
scalar ws19_network.node[19].core_layer 	interests[19] 	0
scalar ws19_network.node[19].core_layer 	data[19] 	0
scalar ws19_network.node[19].content_store 	p_hit[19] 	-nan
scalar ws19_network.node[19].content_store 	hits[19] 	0
scalar ws19_network.node[19].content_store 	misses[19] 	0
scalar ws19_network.node[19].content_store 	decision_yes[19] 	0
scalar ws19_network.node[19].content_store 	decision_no[19] 	0
scalar ws19_network.node[19].content_store 	decision_ratio[19] 	0
scalar ws19_network.node[19].content_store 	correction_factor[19] 	0.0027225701061802
scalar ws19_network.node[19].content_store 	kappa[19] 	1
scalar ws19_network.node[20].core_layer 	interests[20] 	192593
scalar ws19_network.node[20].core_layer 	data[20] 	149020
scalar ws19_network.node[20].content_store 	p_hit[20] 	0.22363221923954
scalar ws19_network.node[20].content_store 	hits[20] 	43070
scalar ws19_network.node[20].content_store 	misses[20] 	149523
scalar ws19_network.node[20].content_store 	decision_yes[20] 	859
scalar ws19_network.node[20].content_store 	decision_no[20] 	148161
scalar ws19_network.node[20].content_store 	decision_ratio[20] 	0.0057643269359817
scalar ws19_network.node[20].content_store 	correction_factor[20] 	0.0027225701061802
scalar ws19_network.node[20].content_store 	kappa[20] 	1
scalar ws19_network.node[21].core_layer 	interests[21] 	0
scalar ws19_network.node[21].core_layer 	data[21] 	0
scalar ws19_network.node[21].content_store 	p_hit[21] 	-nan
scalar ws19_network.node[21].content_store 	hits[21] 	0
scalar ws19_network.node[21].content_store 	misses[21] 	0
scalar ws19_network.node[21].content_store 	decision_yes[21] 	0
scalar ws19_network.node[21].content_store 	decision_no[21] 	0
scalar ws19_network.node[21].content_store 	decision_ratio[21] 	0
scalar ws19_network.node[21].content_store 	correction_factor[21] 	0.0027225701061802
scalar ws19_network.node[21].content_store 	kappa[21] 	1
scalar ws19_network.client[1] 	hdistance[1] 	2.255580906366
scalar ws19_network.client[1] 	downloads[1] 	178824
scalar ws19_network.client[1] 	avg_time[1] 	0.008333551501
scalar ws19_network.client[1] 	interests_sent[1] 	180651
scalar ws19_network.client[3] 	hdistance[3] 	2.3846235347915
scalar ws19_network.client[3] 	downloads[3] 	179326
scalar ws19_network.client[3] 	avg_time[3] 	0.008809163819
scalar ws19_network.client[3] 	interests_sent[3] 	179747
scalar ws19_network.client[20] 	hdistance[20] 	2.2580409926409
scalar ws19_network.client[20] 	downloads[20] 	179642
scalar ws19_network.client[20] 	avg_time[20] 	0.008360571986
scalar ws19_network.client[20] 	interests_sent[20] 	180145
