version 2
run General-11-20141030-18:42:15-30803
attr D costaware0.01
attr F nrr
attr R lru
attr a 1
attr configname General
attr csize 1e3
attr ctlg 1e5
attr datetime 20141030-18:42:15
attr experiment General
attr inifile omnetpp.ini
attr iterationvars "$rep=11, $lambda=100, $a=1, $ctlg=1e5, $F=nrr, $ttl=10, $D=costaware0.01, $R=lru, $csize=1e3, $window=60, $variance=0.05, $mytime=1800, $kappa=1, $priceratiovalue=10, $pricebits=0"
attr iterationvars2 "$rep=11, $lambda=100, $a=1, $ctlg=1e5, $F=nrr, $ttl=10, $D=costaware0.01, $R=lru, $csize=1e3, $window=60, $variance=0.05, $mytime=1800, $kappa=1, $priceratiovalue=10, $pricebits=0, $repetition=0"
attr kappa 1
attr lambda 100
attr measurement "$rep=11, $lambda=100, $a=1, $ctlg=1e5, $F=nrr, $ttl=10, $D=costaware0.01, $R=lru, $csize=1e3, $window=60, $variance=0.05, $mytime=1800, $kappa=1, $priceratiovalue=10, $pricebits=0"
attr mytime 1800
attr network networks.ws${rep}_network
attr pricebits 0
attr priceratiovalue 10
attr processid 30803
attr rep 11
attr repetition 0
attr replication #0
attr resultdir results
attr runnumber 11
attr seedset 11
attr ttl 10
attr variance 0.05
attr window 60

scalar . 	a 	1
scalar . 	csize 	1e3
scalar . 	ctlg 	1e5
scalar . 	kappa 	1
scalar . 	lambda 	100
scalar . 	mytime 	1800
scalar . 	pricebits 	0
scalar . 	priceratiovalue 	10
scalar . 	rep 	11
scalar . 	ttl 	10
scalar . 	variance 	0.05
scalar . 	window 	60
scalar ws11_network.content_distribution 	repo-0 	1
scalar ws11_network.content_distribution 	repo-1 	10
scalar ws11_network.content_distribution 	repo-2 	9
scalar ws11_network.content_distribution 	client-0 	4
scalar ws11_network.content_distribution 	client-1 	3
scalar ws11_network.content_distribution 	client-2 	5
scalar ws11_network.content_distribution 	repo-0_card 	33091
scalar ws11_network.content_distribution 	repo-0_price 	10
scalar ws11_network.content_distribution 	repo-1_card 	33552
scalar ws11_network.content_distribution 	repo-1_price 	1
scalar ws11_network.content_distribution 	repo-2_card 	33357
scalar ws11_network.content_distribution 	repo-2_price 	0
scalar ws11_network.statistics 	repo_popularity[0] 	0.34138276193578
scalar ws11_network.statistics 	repo_popularity[1] 	0.30435585390103
scalar ws11_network.statistics 	repo_popularity[2] 	0.3542613841632
scalar ws11_network.statistics 	stabilization_time 	36060
scalar ws11_network.statistics 	p_hit 	0.11941546416886
scalar ws11_network.statistics 	interests 	59475.318181818
scalar ws11_network.statistics 	data 	34966.954545455
scalar ws11_network.statistics 	hdistance 	2.1445347242093
scalar ws11_network.statistics 	avg_time 	0.007423530994
scalar ws11_network.statistics 	downloads 	535670
scalar ws11_network.statistics 	total_cost 	1059446
scalar ws11_network.statistics 	total_replicas 	100000
scalar ws11_network.statistics 	inner_hit 	0.29423525678123
scalar ws11_network.statistics 	interests_sent 	539184
scalar ws11_network.node[0].core_layer 	interests[0] 	0
scalar ws11_network.node[0].core_layer 	data[0] 	0
scalar ws11_network.node[0].core_layer 	repo_int[0] 	378057
scalar ws11_network.node[0].content_store 	p_hit[0] 	-nan
scalar ws11_network.node[0].content_store 	hits[0] 	0
scalar ws11_network.node[0].content_store 	misses[0] 	0
scalar ws11_network.node[0].content_store 	decision_yes[0] 	0
scalar ws11_network.node[0].content_store 	decision_no[0] 	0
scalar ws11_network.node[0].content_store 	decision_ratio[0] 	0
scalar ws11_network.node[0].content_store 	correction_factor[0] 	0.0027225701061802
scalar ws11_network.node[0].content_store 	kappa[0] 	1
scalar ws11_network.node[1].core_layer 	interests[1] 	147473
scalar ws11_network.node[1].core_layer 	repo_load[1] 	96808
scalar ws11_network.node[1].core_layer 	data[1] 	5263
scalar ws11_network.node[1].content_store 	p_hit[1] 	0.30786652471978
scalar ws11_network.node[1].content_store 	hits[1] 	45402
scalar ws11_network.node[1].content_store 	misses[1] 	102071
scalar ws11_network.node[1].content_store 	decision_yes[1] 	2764
scalar ws11_network.node[1].content_store 	decision_no[1] 	99307
scalar ws11_network.node[1].content_store 	decision_ratio[1] 	0.027079189975605
scalar ws11_network.node[1].content_store 	correction_factor[1] 	0.0027225701061802
scalar ws11_network.node[1].content_store 	kappa[1] 	1
scalar ws11_network.node[2].core_layer 	interests[2] 	0
scalar ws11_network.node[2].core_layer 	data[2] 	0
scalar ws11_network.node[2].content_store 	p_hit[2] 	-nan
scalar ws11_network.node[2].content_store 	hits[2] 	0
scalar ws11_network.node[2].content_store 	misses[2] 	0
scalar ws11_network.node[2].content_store 	decision_yes[2] 	0
scalar ws11_network.node[2].content_store 	decision_no[2] 	0
scalar ws11_network.node[2].content_store 	decision_ratio[2] 	0
scalar ws11_network.node[2].content_store 	correction_factor[2] 	0.0027225701061802
scalar ws11_network.node[2].content_store 	kappa[2] 	1
scalar ws11_network.node[3].core_layer 	interests[3] 	180691
scalar ws11_network.node[3].core_layer 	data[3] 	153694
scalar ws11_network.node[3].content_store 	p_hit[3] 	0.14714069876197
scalar ws11_network.node[3].content_store 	hits[3] 	26587
scalar ws11_network.node[3].content_store 	misses[3] 	154104
scalar ws11_network.node[3].content_store 	decision_yes[3] 	976
scalar ws11_network.node[3].content_store 	decision_no[3] 	152718
scalar ws11_network.node[3].content_store 	decision_ratio[3] 	0.0063502804273426
scalar ws11_network.node[3].content_store 	correction_factor[3] 	0.0027225701061802
scalar ws11_network.node[3].content_store 	kappa[3] 	1
scalar ws11_network.node[4].core_layer 	interests[4] 	237987
scalar ws11_network.node[4].core_layer 	data[4] 	210582
scalar ws11_network.node[4].content_store 	p_hit[4] 	0.10697222957557
scalar ws11_network.node[4].content_store 	hits[4] 	25458
scalar ws11_network.node[4].content_store 	misses[4] 	212529
scalar ws11_network.node[4].content_store 	decision_yes[4] 	1037
scalar ws11_network.node[4].content_store 	decision_no[4] 	209545
scalar ws11_network.node[4].content_store 	decision_ratio[4] 	0.0049244474836406
scalar ws11_network.node[4].content_store 	correction_factor[4] 	0.0027225701061802
scalar ws11_network.node[4].content_store 	kappa[4] 	1
scalar ws11_network.node[5].core_layer 	interests[5] 	238930
scalar ws11_network.node[5].core_layer 	data[5] 	228631
scalar ws11_network.node[5].content_store 	p_hit[5] 	0.032557652869041
scalar ws11_network.node[5].content_store 	hits[5] 	7779
scalar ws11_network.node[5].content_store 	misses[5] 	231151
scalar ws11_network.node[5].content_store 	decision_yes[5] 	1790
scalar ws11_network.node[5].content_store 	decision_no[5] 	226841
scalar ws11_network.node[5].content_store 	decision_ratio[5] 	0.0078292095122709
scalar ws11_network.node[5].content_store 	correction_factor[5] 	0.0027225701061802
scalar ws11_network.node[5].content_store 	kappa[5] 	1
scalar ws11_network.node[6].core_layer 	interests[6] 	0
scalar ws11_network.node[6].core_layer 	data[6] 	0
scalar ws11_network.node[6].content_store 	p_hit[6] 	-nan
scalar ws11_network.node[6].content_store 	hits[6] 	0
scalar ws11_network.node[6].content_store 	misses[6] 	0
scalar ws11_network.node[6].content_store 	decision_yes[6] 	0
scalar ws11_network.node[6].content_store 	decision_no[6] 	0
scalar ws11_network.node[6].content_store 	decision_ratio[6] 	0
scalar ws11_network.node[6].content_store 	correction_factor[6] 	0.0027225701061802
scalar ws11_network.node[6].content_store 	kappa[6] 	1
scalar ws11_network.node[7].core_layer 	interests[7] 	66737
scalar ws11_network.node[7].core_layer 	data[7] 	66737
scalar ws11_network.node[7].content_store 	p_hit[7] 	0
scalar ws11_network.node[7].content_store 	hits[7] 	0
scalar ws11_network.node[7].content_store 	misses[7] 	66737
scalar ws11_network.node[7].content_store 	decision_yes[7] 	0
scalar ws11_network.node[7].content_store 	decision_no[7] 	66737
scalar ws11_network.node[7].content_store 	decision_ratio[7] 	0
scalar ws11_network.node[7].content_store 	correction_factor[7] 	0.0027225701061802
scalar ws11_network.node[7].content_store 	kappa[7] 	1
scalar ws11_network.node[8].core_layer 	interests[8] 	0
scalar ws11_network.node[8].core_layer 	data[8] 	0
scalar ws11_network.node[8].content_store 	p_hit[8] 	-nan
scalar ws11_network.node[8].content_store 	hits[8] 	0
scalar ws11_network.node[8].content_store 	misses[8] 	0
scalar ws11_network.node[8].content_store 	decision_yes[8] 	0
scalar ws11_network.node[8].content_store 	decision_no[8] 	0
scalar ws11_network.node[8].content_store 	decision_ratio[8] 	0
scalar ws11_network.node[8].content_store 	correction_factor[8] 	0.0027225701061802
scalar ws11_network.node[8].content_store 	kappa[8] 	1
scalar ws11_network.node[9].core_layer 	interests[9] 	240825
scalar ws11_network.node[9].core_layer 	repo_load[9] 	189883
scalar ws11_network.node[9].core_layer 	data[9] 	40845
scalar ws11_network.node[9].content_store 	p_hit[9] 	0.041926710266791
scalar ws11_network.node[9].content_store 	hits[9] 	10097
scalar ws11_network.node[9].content_store 	misses[9] 	230728
scalar ws11_network.node[9].content_store 	decision_yes[9] 	78
scalar ws11_network.node[9].content_store 	decision_no[9] 	230650
scalar ws11_network.node[9].content_store 	decision_ratio[9] 	0.00033806040012482
scalar ws11_network.node[9].content_store 	correction_factor[9] 	0.0027225701061802
scalar ws11_network.node[9].content_store 	kappa[9] 	1
scalar ws11_network.node[10].core_layer 	interests[10] 	195814
scalar ws11_network.node[10].core_layer 	repo_load[10] 	91366
scalar ws11_network.node[10].core_layer 	data[10] 	63521
scalar ws11_network.node[10].content_store 	p_hit[10] 	0.20900957030652
scalar ws11_network.node[10].content_store 	hits[10] 	40927
scalar ws11_network.node[10].content_store 	misses[10] 	154887
scalar ws11_network.node[10].content_store 	decision_yes[10] 	272
scalar ws11_network.node[10].content_store 	decision_no[10] 	154615
scalar ws11_network.node[10].content_store 	decision_ratio[10] 	0.0017561189770607
scalar ws11_network.node[10].content_store 	correction_factor[10] 	0.0027225701061802
scalar ws11_network.node[10].content_store 	kappa[10] 	1
scalar ws11_network.node[11].core_layer 	interests[11] 	0
scalar ws11_network.node[11].core_layer 	data[11] 	0
scalar ws11_network.node[11].content_store 	p_hit[11] 	-nan
scalar ws11_network.node[11].content_store 	hits[11] 	0
scalar ws11_network.node[11].content_store 	misses[11] 	0
scalar ws11_network.node[11].content_store 	decision_yes[11] 	0
scalar ws11_network.node[11].content_store 	decision_no[11] 	0
scalar ws11_network.node[11].content_store 	decision_ratio[11] 	0
scalar ws11_network.node[11].content_store 	correction_factor[11] 	0.0027225701061802
scalar ws11_network.node[11].content_store 	kappa[11] 	1
scalar ws11_network.node[12].core_layer 	interests[12] 	0
scalar ws11_network.node[12].core_layer 	data[12] 	0
scalar ws11_network.node[12].content_store 	p_hit[12] 	-nan
scalar ws11_network.node[12].content_store 	hits[12] 	0
scalar ws11_network.node[12].content_store 	misses[12] 	0
scalar ws11_network.node[12].content_store 	decision_yes[12] 	0
scalar ws11_network.node[12].content_store 	decision_no[12] 	0
scalar ws11_network.node[12].content_store 	decision_ratio[12] 	0
scalar ws11_network.node[12].content_store 	correction_factor[12] 	0.0027225701061802
scalar ws11_network.node[12].content_store 	kappa[12] 	1
scalar ws11_network.node[13].core_layer 	interests[13] 	0
scalar ws11_network.node[13].core_layer 	data[13] 	0
scalar ws11_network.node[13].content_store 	p_hit[13] 	-nan
scalar ws11_network.node[13].content_store 	hits[13] 	0
scalar ws11_network.node[13].content_store 	misses[13] 	0
scalar ws11_network.node[13].content_store 	decision_yes[13] 	0
scalar ws11_network.node[13].content_store 	decision_no[13] 	0
scalar ws11_network.node[13].content_store 	decision_ratio[13] 	0
scalar ws11_network.node[13].content_store 	correction_factor[13] 	0.0027225701061802
scalar ws11_network.node[13].content_store 	kappa[13] 	1
scalar ws11_network.node[14].core_layer 	interests[14] 	0
scalar ws11_network.node[14].core_layer 	data[14] 	0
scalar ws11_network.node[14].content_store 	p_hit[14] 	-nan
scalar ws11_network.node[14].content_store 	hits[14] 	0
scalar ws11_network.node[14].content_store 	misses[14] 	0
scalar ws11_network.node[14].content_store 	decision_yes[14] 	0
scalar ws11_network.node[14].content_store 	decision_no[14] 	0
scalar ws11_network.node[14].content_store 	decision_ratio[14] 	0
scalar ws11_network.node[14].content_store 	correction_factor[14] 	0.0027225701061802
scalar ws11_network.node[14].content_store 	kappa[14] 	1
scalar ws11_network.node[15].core_layer 	interests[15] 	0
scalar ws11_network.node[15].core_layer 	data[15] 	0
scalar ws11_network.node[15].content_store 	p_hit[15] 	-nan
scalar ws11_network.node[15].content_store 	hits[15] 	0
scalar ws11_network.node[15].content_store 	misses[15] 	0
scalar ws11_network.node[15].content_store 	decision_yes[15] 	0
scalar ws11_network.node[15].content_store 	decision_no[15] 	0
scalar ws11_network.node[15].content_store 	decision_ratio[15] 	0
scalar ws11_network.node[15].content_store 	correction_factor[15] 	0.0027225701061802
scalar ws11_network.node[15].content_store 	kappa[15] 	1
scalar ws11_network.node[16].core_layer 	interests[16] 	0
scalar ws11_network.node[16].core_layer 	data[16] 	0
scalar ws11_network.node[16].content_store 	p_hit[16] 	-nan
scalar ws11_network.node[16].content_store 	hits[16] 	0
scalar ws11_network.node[16].content_store 	misses[16] 	0
scalar ws11_network.node[16].content_store 	decision_yes[16] 	0
scalar ws11_network.node[16].content_store 	decision_no[16] 	0
scalar ws11_network.node[16].content_store 	decision_ratio[16] 	0
scalar ws11_network.node[16].content_store 	correction_factor[16] 	0.0027225701061802
scalar ws11_network.node[16].content_store 	kappa[16] 	1
scalar ws11_network.node[17].core_layer 	interests[17] 	0
scalar ws11_network.node[17].core_layer 	data[17] 	0
scalar ws11_network.node[17].content_store 	p_hit[17] 	-nan
scalar ws11_network.node[17].content_store 	hits[17] 	0
scalar ws11_network.node[17].content_store 	misses[17] 	0
scalar ws11_network.node[17].content_store 	decision_yes[17] 	0
scalar ws11_network.node[17].content_store 	decision_no[17] 	0
scalar ws11_network.node[17].content_store 	decision_ratio[17] 	0
scalar ws11_network.node[17].content_store 	correction_factor[17] 	0.0027225701061802
scalar ws11_network.node[17].content_store 	kappa[17] 	1
scalar ws11_network.node[18].core_layer 	interests[18] 	0
scalar ws11_network.node[18].core_layer 	data[18] 	0
scalar ws11_network.node[18].content_store 	p_hit[18] 	-nan
scalar ws11_network.node[18].content_store 	hits[18] 	0
scalar ws11_network.node[18].content_store 	misses[18] 	0
scalar ws11_network.node[18].content_store 	decision_yes[18] 	0
scalar ws11_network.node[18].content_store 	decision_no[18] 	0
scalar ws11_network.node[18].content_store 	decision_ratio[18] 	0
scalar ws11_network.node[18].content_store 	correction_factor[18] 	0.0027225701061802
scalar ws11_network.node[18].content_store 	kappa[18] 	1
scalar ws11_network.node[19].core_layer 	interests[19] 	0
scalar ws11_network.node[19].core_layer 	data[19] 	0
scalar ws11_network.node[19].content_store 	p_hit[19] 	-nan
scalar ws11_network.node[19].content_store 	hits[19] 	0
scalar ws11_network.node[19].content_store 	misses[19] 	0
scalar ws11_network.node[19].content_store 	decision_yes[19] 	0
scalar ws11_network.node[19].content_store 	decision_no[19] 	0
scalar ws11_network.node[19].content_store 	decision_ratio[19] 	0
scalar ws11_network.node[19].content_store 	correction_factor[19] 	0.0027225701061802
scalar ws11_network.node[19].content_store 	kappa[19] 	1
scalar ws11_network.node[20].core_layer 	interests[20] 	0
scalar ws11_network.node[20].core_layer 	data[20] 	0
scalar ws11_network.node[20].content_store 	p_hit[20] 	-nan
scalar ws11_network.node[20].content_store 	hits[20] 	0
scalar ws11_network.node[20].content_store 	misses[20] 	0
scalar ws11_network.node[20].content_store 	decision_yes[20] 	0
scalar ws11_network.node[20].content_store 	decision_no[20] 	0
scalar ws11_network.node[20].content_store 	decision_ratio[20] 	0
scalar ws11_network.node[20].content_store 	correction_factor[20] 	0.0027225701061802
scalar ws11_network.node[20].content_store 	kappa[20] 	1
scalar ws11_network.node[21].core_layer 	interests[21] 	0
scalar ws11_network.node[21].core_layer 	data[21] 	0
scalar ws11_network.node[21].content_store 	p_hit[21] 	-nan
scalar ws11_network.node[21].content_store 	hits[21] 	0
scalar ws11_network.node[21].content_store 	misses[21] 	0
scalar ws11_network.node[21].content_store 	decision_yes[21] 	0
scalar ws11_network.node[21].content_store 	decision_no[21] 	0
scalar ws11_network.node[21].content_store 	decision_ratio[21] 	0
scalar ws11_network.node[21].content_store 	correction_factor[21] 	0.0027225701061802
scalar ws11_network.node[21].content_store 	kappa[21] 	1
scalar ws11_network.client[3] 	hdistance[3] 	1.8336672449493
scalar ws11_network.client[3] 	downloads[3] 	178690
scalar ws11_network.client[3] 	avg_time[3] 	0.005836624649
scalar ws11_network.client[3] 	interests_sent[3] 	179100
scalar ws11_network.client[4] 	hdistance[4] 	2.296875874811
scalar ws11_network.client[4] 	downloads[4] 	178610
scalar ws11_network.client[4] 	avg_time[4] 	0.008162495125
scalar ws11_network.client[4] 	interests_sent[4] 	180439
scalar ws11_network.client[5] 	hdistance[5] 	2.3030610528677
scalar ws11_network.client[5] 	downloads[5] 	178370
scalar ws11_network.client[5] 	avg_time[5] 	0.008271473208
scalar ws11_network.client[5] 	interests_sent[5] 	179645
