version 2
run General-52-20150404-06:40:28-27440
attr D lce
attr F nrr
attr R lru
attr a 0.9
attr configname General
attr csize 1e3
attr ctlg 1e5
attr datetime 20150404-06:40:28
attr experiment General
attr inifile omnetpp.ini
attr iterationvars "$rep=9, $net=cost_scenario, $lambda=100, $a=0.9, $ctlg=1e5, $F=nrr, $ttl=10, $D=lce, $R=lru, $csize=1e3, $window=60, $variance=0.05, $mytime=1800000, $kappa=1, $priceratiovalue=10, $splits=0.333_0.333_0.334, $pricebits=0"
attr iterationvars2 "$rep=9, $net=cost_scenario, $lambda=100, $a=0.9, $ctlg=1e5, $F=nrr, $ttl=10, $D=lce, $R=lru, $csize=1e3, $window=60, $variance=0.05, $mytime=1800000, $kappa=1, $priceratiovalue=10, $splits=0.333_0.333_0.334, $pricebits=0, $repetition=0"
attr kappa 1
attr lambda 100
attr measurement "$rep=9, $net=cost_scenario, $lambda=100, $a=0.9, $ctlg=1e5, $F=nrr, $ttl=10, $D=lce, $R=lru, $csize=1e3, $window=60, $variance=0.05, $mytime=1800000, $kappa=1, $priceratiovalue=10, $splits=0.333_0.333_0.334, $pricebits=0"
attr mytime 1800000
attr net cost_scenario
attr network networks.${net=cost_scenario}_network
attr pricebits 0
attr priceratiovalue 10
attr processid 27440
attr rep 9
attr repetition 0
attr replication #0
attr resultdir results
attr runnumber 52
attr seedset 9
attr splits 0.333_0.333_0.334
attr ttl 10
attr variance 0.05
attr window 60

scalar . 	a 	0.9
scalar . 	csize 	1e3
scalar . 	ctlg 	1e5
scalar . 	kappa 	1
scalar . 	lambda 	100
scalar . 	mytime 	1800000
scalar . 	pricebits 	0
scalar . 	priceratiovalue 	10
scalar . 	rep 	9
scalar . 	ttl 	10
scalar . 	variance 	0.05
scalar . 	window 	60
scalar cost_scenario_network.content_distribution 	repo-0 	1
scalar cost_scenario_network.content_distribution 	repo-1 	2
scalar cost_scenario_network.content_distribution 	repo-2 	3
scalar cost_scenario_network.content_distribution 	client-0 	0
scalar cost_scenario_network.content_distribution 	repo-0_card 	33408
scalar cost_scenario_network.content_distribution 	repo-0_price 	0
scalar cost_scenario_network.content_distribution 	repo-1_card 	33169
scalar cost_scenario_network.content_distribution 	repo-1_price 	10
scalar cost_scenario_network.content_distribution 	repo-2_card 	33423
scalar cost_scenario_network.content_distribution 	repo-2_price 	1
scalar cost_scenario_network.statistics 	repo_popularity[0] 	0.36993868250964
scalar cost_scenario_network.statistics 	repo_popularity[1] 	0.31883687727862
scalar cost_scenario_network.statistics 	repo_popularity[2] 	0.31122444021173
scalar cost_scenario_network.statistics 	stabilization_time 	74.2
scalar cost_scenario_network.statistics 	p_hit 	0.20629603741153
scalar cost_scenario_network.statistics 	interests 	74607053.5
scalar cost_scenario_network.statistics 	data 	29607957
scalar cost_scenario_network.statistics 	hdistance 	1.3159356210633
scalar cost_scenario_network.statistics 	avg_time 	0
scalar cost_scenario_network.statistics 	downloads 	179996386
scalar cost_scenario_network.statistics 	total_cost 	432484171
scalar cost_scenario_network.statistics 	total_replicas 	100000
scalar cost_scenario_network.statistics 	inner_hit 	0.34203218946852
scalar cost_scenario_network.statistics 	interests_sent 	179996386
scalar cost_scenario_network.node[0].core_layer 	interests[0] 	179996386
scalar cost_scenario_network.node[0].core_layer 	data[0] 	118431828
scalar cost_scenario_network.node[0].core_layer 	repo_int[0] 	118431828
scalar cost_scenario_network.node[0].content_store 	p_hit[0] 	0.34203218946852
scalar cost_scenario_network.node[0].content_store 	hits[0] 	61564558
scalar cost_scenario_network.node[0].content_store 	misses[0] 	118431828
scalar cost_scenario_network.node[0].content_store 	decision_yes[0] 	118431828
scalar cost_scenario_network.node[0].content_store 	decision_no[0] 	0
scalar cost_scenario_network.node[0].content_store 	decision_ratio[0] 	1
scalar cost_scenario_network.node[0].content_store 	cache_value[0] 	24.84755429713
scalar cost_scenario_network.node[0].content_store 	average_price_of_cache[0] 	3.631
scalar cost_scenario_network.node[1].core_layer 	interests[1] 	39331568
scalar cost_scenario_network.node[1].core_layer 	repo_load[1] 	39331568
scalar cost_scenario_network.node[1].core_layer 	data[1] 	0
scalar cost_scenario_network.node[1].content_store 	p_hit[1] 	0
scalar cost_scenario_network.node[1].content_store 	hits[1] 	0
scalar cost_scenario_network.node[1].content_store 	misses[1] 	39331568
scalar cost_scenario_network.node[1].content_store 	decision_yes[1] 	0
scalar cost_scenario_network.node[1].content_store 	decision_no[1] 	39331568
scalar cost_scenario_network.node[1].content_store 	decision_ratio[1] 	0
scalar cost_scenario_network.node[1].content_store 	cache_value[1] 	2.0716125099821e-316
scalar cost_scenario_network.node[1].content_store 	average_price_of_cache[1] 	-nan
scalar cost_scenario_network.node[2].core_layer 	interests[2] 	39264879
scalar cost_scenario_network.node[2].core_layer 	repo_load[2] 	39264879
scalar cost_scenario_network.node[2].core_layer 	data[2] 	0
scalar cost_scenario_network.node[2].content_store 	p_hit[2] 	0
scalar cost_scenario_network.node[2].content_store 	hits[2] 	0
scalar cost_scenario_network.node[2].content_store 	misses[2] 	39264879
scalar cost_scenario_network.node[2].content_store 	decision_yes[2] 	0
scalar cost_scenario_network.node[2].content_store 	decision_no[2] 	39264879
scalar cost_scenario_network.node[2].content_store 	decision_ratio[2] 	0
scalar cost_scenario_network.node[2].content_store 	cache_value[2] 	2.0717682394737e-316
scalar cost_scenario_network.node[2].content_store 	average_price_of_cache[2] 	-nan
scalar cost_scenario_network.node[3].core_layer 	interests[3] 	39835381
scalar cost_scenario_network.node[3].core_layer 	repo_load[3] 	39835381
scalar cost_scenario_network.node[3].core_layer 	data[3] 	0
scalar cost_scenario_network.node[3].content_store 	p_hit[3] 	0
scalar cost_scenario_network.node[3].content_store 	hits[3] 	0
scalar cost_scenario_network.node[3].content_store 	misses[3] 	39835381
scalar cost_scenario_network.node[3].content_store 	decision_yes[3] 	0
scalar cost_scenario_network.node[3].content_store 	decision_no[3] 	39835381
scalar cost_scenario_network.node[3].content_store 	decision_ratio[3] 	0
scalar cost_scenario_network.node[3].content_store 	cache_value[3] 	2.0719255499754e-316
scalar cost_scenario_network.node[3].content_store 	average_price_of_cache[3] 	-nan
scalar cost_scenario_network.client[0] 	hdistance[0] 	1.3159356210633
scalar cost_scenario_network.client[0] 	downloads[0] 	179996386
scalar cost_scenario_network.client[0] 	avg_time[0] 	0
scalar cost_scenario_network.client[0] 	interests_sent[0] 	179996386
