version 2
run General-4-20141007-10:43:53-8386
attr D costaware0.001
attr F spr
attr R lru
attr a 1
attr configname General
attr csize 1e3
attr ctlg 1e5
attr datetime 20141007-10:43:53
attr experiment General
attr inifile omnetpp.ini
attr iterationvars "$net=abilene_cost, $rep=1, $priceratiovalue=10, $weights=0.333_0.333_0.334, $lambda=100, $a=1, $ctlg=1e5, $F=spr, $ttl=10, $D=costaware0.001, $xi=1, $R=lru, $csize=1e3, $pricebits=0, $window=60, $variance=0.05, $mytime=1800"
attr iterationvars2 "$net=abilene_cost, $rep=1, $priceratiovalue=10, $weights=0.333_0.333_0.334, $lambda=100, $a=1, $ctlg=1e5, $F=spr, $ttl=10, $D=costaware0.001, $xi=1, $R=lru, $csize=1e3, $pricebits=0, $window=60, $variance=0.05, $mytime=1800, $repetition=0"
attr lambda 100
attr measurement "$net=abilene_cost, $rep=1, $priceratiovalue=10, $weights=0.333_0.333_0.334, $lambda=100, $a=1, $ctlg=1e5, $F=spr, $ttl=10, $D=costaware0.001, $xi=1, $R=lru, $csize=1e3, $pricebits=0, $window=60, $variance=0.05, $mytime=1800"
attr mytime 1800
attr net abilene_cost
attr network networks.${net=abilene_cost,geant_cost}_network
attr pricebits 0
attr priceratiovalue 10
attr processid 8386
attr rep 1
attr repetition 0
attr replication #0
attr resultdir results
attr runnumber 4
attr seedset 1
attr ttl 10
attr variance 0.05
attr weights 0.333_0.333_0.334
attr window 60
attr xi 1

scalar . 	a 	1
scalar . 	csize 	1e3
scalar . 	ctlg 	1e5
scalar . 	lambda 	100
scalar . 	mytime 	1800
scalar . 	pricebits 	0
scalar . 	priceratiovalue 	10
scalar . 	rep 	1
scalar . 	ttl 	10
scalar . 	variance 	0.05
scalar . 	window 	60
scalar . 	xi 	1
scalar abilene_cost_network.content_distribution 	repo-0 	10
scalar abilene_cost_network.content_distribution 	repo-1 	7
scalar abilene_cost_network.content_distribution 	repo-2 	5
scalar abilene_cost_network.content_distribution 	client-0 	8
scalar abilene_cost_network.content_distribution 	client-1 	7
scalar abilene_cost_network.content_distribution 	client-2 	2
scalar abilene_cost_network.content_distribution 	repo-0_card 	33397
scalar abilene_cost_network.content_distribution 	repo-0_price 	0
scalar abilene_cost_network.content_distribution 	repo-1_card 	33041
scalar abilene_cost_network.content_distribution 	repo-1_price 	10
scalar abilene_cost_network.content_distribution 	repo-2_card 	33562
scalar abilene_cost_network.content_distribution 	repo-2_price 	1
scalar abilene_cost_network.statistics 	repo_popularity[0] 	0.36106327575467
scalar abilene_cost_network.statistics 	repo_popularity[1] 	0.3490006524958
scalar abilene_cost_network.statistics 	repo_popularity[2] 	0.28993607174955
scalar abilene_cost_network.statistics 	stabilization_time 	36060
scalar abilene_cost_network.statistics 	p_hit 	0.11773117957895
scalar abilene_cost_network.statistics 	interests 	135532.18181818
scalar abilene_cost_network.statistics 	data 	86455.181818182
scalar abilene_cost_network.statistics 	hdistance 	2.4579869277802
scalar abilene_cost_network.statistics 	avg_time 	0.011946398812
scalar abilene_cost_network.statistics 	downloads 	534344
scalar abilene_cost_network.statistics 	total_cost 	928824
scalar abilene_cost_network.statistics 	total_replicas 	100000
scalar abilene_cost_network.statistics 	inner_hit 	0.33223728534427
scalar abilene_cost_network.node[0].core_layer 	interests[0] 	0
scalar abilene_cost_network.node[0].core_layer 	data[0] 	0
scalar abilene_cost_network.node[0].core_layer 	repo_int[0] 	356815
scalar abilene_cost_network.node[0].content_store 	p_hit[0] 	-nan
scalar abilene_cost_network.node[0].content_store 	hits[0] 	0
scalar abilene_cost_network.node[0].content_store 	misses[0] 	0
scalar abilene_cost_network.node[0].content_store 	decision_yes[0] 	0
scalar abilene_cost_network.node[0].content_store 	decision_no[0] 	0
scalar abilene_cost_network.node[0].content_store 	decision_ratio[0] 	0
scalar abilene_cost_network.node[0].content_store 	correction_factor[0] 	0.00027225701061802
scalar abilene_cost_network.node[0].content_store 	kappa[0] 	1
scalar abilene_cost_network.node[1].core_layer 	interests[1] 	64393
scalar abilene_cost_network.node[1].core_layer 	data[1] 	64393
scalar abilene_cost_network.node[1].content_store 	p_hit[1] 	0
scalar abilene_cost_network.node[1].content_store 	hits[1] 	0
scalar abilene_cost_network.node[1].content_store 	misses[1] 	64393
scalar abilene_cost_network.node[1].content_store 	decision_yes[1] 	0
scalar abilene_cost_network.node[1].content_store 	decision_no[1] 	64393
scalar abilene_cost_network.node[1].content_store 	decision_ratio[1] 	0
scalar abilene_cost_network.node[1].content_store 	correction_factor[1] 	0.00027225701061802
scalar abilene_cost_network.node[1].content_store 	kappa[1] 	1
scalar abilene_cost_network.node[2].core_layer 	interests[2] 	180760
scalar abilene_cost_network.node[2].core_layer 	data[2] 	165472
scalar abilene_cost_network.node[2].content_store 	p_hit[2] 	0.073218632440805
scalar abilene_cost_network.node[2].content_store 	hits[2] 	13235
scalar abilene_cost_network.node[2].content_store 	misses[2] 	167525
scalar abilene_cost_network.node[2].content_store 	decision_yes[2] 	74
scalar abilene_cost_network.node[2].content_store 	decision_no[2] 	165398
scalar abilene_cost_network.node[2].content_store 	decision_ratio[2] 	0.00044720556952234
scalar abilene_cost_network.node[2].content_store 	correction_factor[2] 	0.00027225701061802
scalar abilene_cost_network.node[2].content_store 	kappa[2] 	1
scalar abilene_cost_network.node[3].core_layer 	interests[3] 	101078
scalar abilene_cost_network.node[3].core_layer 	data[3] 	93130
scalar abilene_cost_network.node[3].content_store 	p_hit[3] 	0.078632343338808
scalar abilene_cost_network.node[3].content_store 	hits[3] 	7948
scalar abilene_cost_network.node[3].content_store 	misses[3] 	93130
scalar abilene_cost_network.node[3].content_store 	decision_yes[3] 	84
scalar abilene_cost_network.node[3].content_store 	decision_no[3] 	93046
scalar abilene_cost_network.node[3].content_store 	decision_ratio[3] 	0.00090196499516804
scalar abilene_cost_network.node[3].content_store 	correction_factor[3] 	0.00027225701061802
scalar abilene_cost_network.node[3].content_store 	kappa[3] 	1
scalar abilene_cost_network.node[4].core_layer 	interests[4] 	42765
scalar abilene_cost_network.node[4].core_layer 	data[4] 	36434
scalar abilene_cost_network.node[4].content_store 	p_hit[4] 	0.1480416228224
scalar abilene_cost_network.node[4].content_store 	hits[4] 	6331
scalar abilene_cost_network.node[4].content_store 	misses[4] 	36434
scalar abilene_cost_network.node[4].content_store 	decision_yes[4] 	9
scalar abilene_cost_network.node[4].content_store 	decision_no[4] 	36425
scalar abilene_cost_network.node[4].content_store 	decision_ratio[4] 	0.00024702201240599
scalar abilene_cost_network.node[4].content_store 	correction_factor[4] 	0.00027225701061802
scalar abilene_cost_network.node[4].content_store 	kappa[4] 	1
scalar abilene_cost_network.node[5].core_layer 	interests[5] 	109648
scalar abilene_cost_network.node[5].core_layer 	repo_load[5] 	82024
scalar abilene_cost_network.node[5].core_layer 	data[5] 	0
scalar abilene_cost_network.node[5].content_store 	p_hit[5] 	0.25193345979863
scalar abilene_cost_network.node[5].content_store 	hits[5] 	27624
scalar abilene_cost_network.node[5].content_store 	misses[5] 	82024
scalar abilene_cost_network.node[5].content_store 	decision_yes[5] 	17
scalar abilene_cost_network.node[5].content_store 	decision_no[5] 	82007
scalar abilene_cost_network.node[5].content_store 	decision_ratio[5] 	0.00020725641275724
scalar abilene_cost_network.node[5].content_store 	correction_factor[5] 	0.00027225701061802
scalar abilene_cost_network.node[5].content_store 	kappa[5] 	1
scalar abilene_cost_network.node[6].core_layer 	interests[6] 	96695
scalar abilene_cost_network.node[6].core_layer 	data[6] 	73214
scalar abilene_cost_network.node[6].content_store 	p_hit[6] 	0.24283572056466
scalar abilene_cost_network.node[6].content_store 	hits[6] 	23481
scalar abilene_cost_network.node[6].content_store 	misses[6] 	73214
scalar abilene_cost_network.node[6].content_store 	decision_yes[6] 	18
scalar abilene_cost_network.node[6].content_store 	decision_no[6] 	73196
scalar abilene_cost_network.node[6].content_store 	decision_ratio[6] 	0.00024585461796924
scalar abilene_cost_network.node[6].content_store 	correction_factor[6] 	0.00027225701061802
scalar abilene_cost_network.node[6].content_store 	kappa[6] 	1
scalar abilene_cost_network.node[7].core_layer 	interests[7] 	336286
scalar abilene_cost_network.node[7].core_layer 	repo_load[7] 	84680
scalar abilene_cost_network.node[7].core_layer 	data[7] 	160501
scalar abilene_cost_network.node[7].content_store 	p_hit[7] 	0.26617521990211
scalar abilene_cost_network.node[7].content_store 	hits[7] 	89511
scalar abilene_cost_network.node[7].content_store 	misses[7] 	246775
scalar abilene_cost_network.node[7].content_store 	decision_yes[7] 	274
scalar abilene_cost_network.node[7].content_store 	decision_no[7] 	244907
scalar abilene_cost_network.node[7].content_store 	decision_ratio[7] 	0.0011175417344737
scalar abilene_cost_network.node[7].content_store 	correction_factor[7] 	0.00027225701061802
scalar abilene_cost_network.node[7].content_store 	kappa[7] 	1
scalar abilene_cost_network.node[8].core_layer 	interests[8] 	243401
scalar abilene_cost_network.node[8].core_layer 	data[8] 	232146
scalar abilene_cost_network.node[8].content_store 	p_hit[8] 	0.030361420043467
scalar abilene_cost_network.node[8].content_store 	hits[8] 	7390
scalar abilene_cost_network.node[8].content_store 	misses[8] 	236011
scalar abilene_cost_network.node[8].content_store 	decision_yes[8] 	81
scalar abilene_cost_network.node[8].content_store 	decision_no[8] 	232065
scalar abilene_cost_network.node[8].content_store 	decision_ratio[8] 	0.00034891835310537
scalar abilene_cost_network.node[8].content_store 	correction_factor[8] 	0.00027225701061802
scalar abilene_cost_network.node[8].content_store 	kappa[8] 	1
scalar abilene_cost_network.node[9].core_layer 	interests[9] 	125717
scalar abilene_cost_network.node[9].core_layer 	data[9] 	125717
scalar abilene_cost_network.node[9].content_store 	p_hit[9] 	0
scalar abilene_cost_network.node[9].content_store 	hits[9] 	0
scalar abilene_cost_network.node[9].content_store 	misses[9] 	125717
scalar abilene_cost_network.node[9].content_store 	decision_yes[9] 	0
scalar abilene_cost_network.node[9].content_store 	decision_no[9] 	125717
scalar abilene_cost_network.node[9].content_store 	decision_ratio[9] 	0
scalar abilene_cost_network.node[9].content_store 	correction_factor[9] 	0.00027225701061802
scalar abilene_cost_network.node[9].content_store 	kappa[9] 	1
scalar abilene_cost_network.node[10].core_layer 	interests[10] 	190111
scalar abilene_cost_network.node[10].core_layer 	repo_load[10] 	190111
scalar abilene_cost_network.node[10].core_layer 	data[10] 	0
scalar abilene_cost_network.node[10].content_store 	p_hit[10] 	0
scalar abilene_cost_network.node[10].content_store 	hits[10] 	0
scalar abilene_cost_network.node[10].content_store 	misses[10] 	190111
scalar abilene_cost_network.node[10].content_store 	decision_yes[10] 	0
scalar abilene_cost_network.node[10].content_store 	decision_no[10] 	190111
scalar abilene_cost_network.node[10].content_store 	decision_ratio[10] 	0
scalar abilene_cost_network.node[10].content_store 	correction_factor[10] 	0.00027225701061802
scalar abilene_cost_network.node[10].content_store 	kappa[10] 	1
scalar abilene_cost_network.client[2] 	hdistance[2] 	2.6709921827349
scalar abilene_cost_network.client[2] 	downloads[2] 	178707
scalar abilene_cost_network.client[2] 	avg_time[2] 	0.011731904588
scalar abilene_cost_network.client[7] 	hdistance[7] 	2.2452747548937
scalar abilene_cost_network.client[7] 	downloads[7] 	178086
scalar abilene_cost_network.client[7] 	avg_time[7] 	0.011203848334
scalar abilene_cost_network.client[8] 	hdistance[8] 	2.4576938457119
scalar abilene_cost_network.client[8] 	downloads[8] 	177551
scalar abilene_cost_network.client[8] 	avg_time[8] 	0.012903443515
