version 2
run General-4-20141007-11:38:16-22057
attr D costaware0.001
attr F spr
attr R lru
attr a 1
attr configname General
attr csize 1e3
attr ctlg 1e5
attr datetime 20141007-11:38:16
attr experiment General
attr inifile omnetpp.ini
attr iterationvars "$net=abilene_cost, $rep=3, $priceratiovalue=10, $weights=0.333_0.333_0.334, $lambda=100, $a=1, $ctlg=1e5, $F=spr, $ttl=10, $D=costaware0.001, $xi=1, $R=lru, $csize=1e3, $pricebits=0, $window=60, $variance=0.05, $mytime=1800"
attr iterationvars2 "$net=abilene_cost, $rep=3, $priceratiovalue=10, $weights=0.333_0.333_0.334, $lambda=100, $a=1, $ctlg=1e5, $F=spr, $ttl=10, $D=costaware0.001, $xi=1, $R=lru, $csize=1e3, $pricebits=0, $window=60, $variance=0.05, $mytime=1800, $repetition=0"
attr lambda 100
attr measurement "$net=abilene_cost, $rep=3, $priceratiovalue=10, $weights=0.333_0.333_0.334, $lambda=100, $a=1, $ctlg=1e5, $F=spr, $ttl=10, $D=costaware0.001, $xi=1, $R=lru, $csize=1e3, $pricebits=0, $window=60, $variance=0.05, $mytime=1800"
attr mytime 1800
attr net abilene_cost
attr network networks.${net=abilene_cost,geant_cost}_network
attr pricebits 0
attr priceratiovalue 10
attr processid 22057
attr rep 3
attr repetition 0
attr replication #0
attr resultdir results
attr runnumber 4
attr seedset 3
attr ttl 10
attr variance 0.05
attr weights 0.333_0.333_0.334
attr window 60
attr xi 1

scalar . 	a 	1
scalar . 	csize 	1e3
scalar . 	ctlg 	1e5
scalar . 	lambda 	100
scalar . 	mytime 	1800
scalar . 	pricebits 	0
scalar . 	priceratiovalue 	10
scalar . 	rep 	3
scalar . 	ttl 	10
scalar . 	variance 	0.05
scalar . 	window 	60
scalar . 	xi 	1
scalar abilene_cost_network.content_distribution 	repo-0 	9
scalar abilene_cost_network.content_distribution 	repo-1 	4
scalar abilene_cost_network.content_distribution 	repo-2 	0
scalar abilene_cost_network.content_distribution 	client-0 	9
scalar abilene_cost_network.content_distribution 	client-1 	0
scalar abilene_cost_network.content_distribution 	client-2 	1
scalar abilene_cost_network.content_distribution 	repo-0_card 	33498
scalar abilene_cost_network.content_distribution 	repo-0_price 	0
scalar abilene_cost_network.content_distribution 	repo-1_card 	33168
scalar abilene_cost_network.content_distribution 	repo-1_price 	10
scalar abilene_cost_network.content_distribution 	repo-2_card 	33334
scalar abilene_cost_network.content_distribution 	repo-2_price 	1
scalar abilene_cost_network.statistics 	repo_popularity[0] 	0.34820484875244
scalar abilene_cost_network.statistics 	repo_popularity[1] 	0.25519349814637
scalar abilene_cost_network.statistics 	repo_popularity[2] 	0.3966016531012
scalar abilene_cost_network.statistics 	stabilization_time 	36060
scalar abilene_cost_network.statistics 	p_hit 	0.14003889545066
scalar abilene_cost_network.statistics 	interests 	124997.09090909
scalar abilene_cost_network.statistics 	data 	75998.272727273
scalar abilene_cost_network.statistics 	hdistance 	2.2042755286146
scalar abilene_cost_network.statistics 	avg_time 	0.010113199194
scalar abilene_cost_network.statistics 	downloads 	534635
scalar abilene_cost_network.statistics 	total_cost 	788334
scalar abilene_cost_network.statistics 	total_replicas 	100000
scalar abilene_cost_network.statistics 	inner_hit 	0.36076762651155
scalar abilene_cost_network.node[0].core_layer 	interests[0] 	306955
scalar abilene_cost_network.node[0].core_layer 	repo_load[0] 	85634
scalar abilene_cost_network.node[0].core_layer 	data[0] 	106058
scalar abilene_cost_network.node[0].core_layer 	repo_int[0] 	341756
scalar abilene_cost_network.node[0].content_store 	p_hit[0] 	0.37403202423808
scalar abilene_cost_network.node[0].content_store 	hits[0] 	114811
scalar abilene_cost_network.node[0].content_store 	misses[0] 	192144
scalar abilene_cost_network.node[0].content_store 	decision_yes[0] 	93
scalar abilene_cost_network.node[0].content_store 	decision_no[0] 	191599
scalar abilene_cost_network.node[0].content_store 	decision_ratio[0] 	0.00048515326669866
scalar abilene_cost_network.node[0].content_store 	correction_factor[0] 	0.00027225701061802
scalar abilene_cost_network.node[0].content_store 	kappa[0] 	1
scalar abilene_cost_network.node[1].core_layer 	interests[1] 	224018
scalar abilene_cost_network.node[1].core_layer 	data[1] 	208078
scalar abilene_cost_network.node[1].content_store 	p_hit[1] 	0.06131650135257
scalar abilene_cost_network.node[1].content_store 	hits[1] 	13736
scalar abilene_cost_network.node[1].content_store 	misses[1] 	210282
scalar abilene_cost_network.node[1].content_store 	decision_yes[1] 	136
scalar abilene_cost_network.node[1].content_store 	decision_no[1] 	207942
scalar abilene_cost_network.node[1].content_store 	decision_ratio[1] 	0.00065360105345111
scalar abilene_cost_network.node[1].content_store 	correction_factor[1] 	0.00027225701061802
scalar abilene_cost_network.node[1].content_store 	kappa[1] 	1
scalar abilene_cost_network.node[2].core_layer 	interests[2] 	118951
scalar abilene_cost_network.node[2].core_layer 	data[2] 	102030
scalar abilene_cost_network.node[2].content_store 	p_hit[2] 	0.14194920597557
scalar abilene_cost_network.node[2].content_store 	hits[2] 	16885
scalar abilene_cost_network.node[2].content_store 	misses[2] 	102066
scalar abilene_cost_network.node[2].content_store 	decision_yes[2] 	194
scalar abilene_cost_network.node[2].content_store 	decision_no[2] 	101836
scalar abilene_cost_network.node[2].content_store 	decision_ratio[2] 	0.0019014015485641
scalar abilene_cost_network.node[2].content_store 	correction_factor[2] 	0.00027225701061802
scalar abilene_cost_network.node[2].content_store 	kappa[2] 	1
scalar abilene_cost_network.node[3].core_layer 	interests[3] 	102029
scalar abilene_cost_network.node[3].core_layer 	data[3] 	86713
scalar abilene_cost_network.node[3].content_store 	p_hit[3] 	0.15012398435739
scalar abilene_cost_network.node[3].content_store 	hits[3] 	15317
scalar abilene_cost_network.node[3].content_store 	misses[3] 	86712
scalar abilene_cost_network.node[3].content_store 	decision_yes[3] 	180
scalar abilene_cost_network.node[3].content_store 	decision_no[3] 	86533
scalar abilene_cost_network.node[3].content_store 	decision_ratio[3] 	0.0020758133151892
scalar abilene_cost_network.node[3].content_store 	correction_factor[3] 	0.00027225701061802
scalar abilene_cost_network.node[3].content_store 	kappa[3] 	1
scalar abilene_cost_network.node[4].core_layer 	interests[4] 	86713
scalar abilene_cost_network.node[4].core_layer 	repo_load[4] 	70270
scalar abilene_cost_network.node[4].core_layer 	data[4] 	0
scalar abilene_cost_network.node[4].content_store 	p_hit[4] 	0.18962554634253
scalar abilene_cost_network.node[4].content_store 	hits[4] 	16443
scalar abilene_cost_network.node[4].content_store 	misses[4] 	70270
scalar abilene_cost_network.node[4].content_store 	decision_yes[4] 	205
scalar abilene_cost_network.node[4].content_store 	decision_no[4] 	70065
scalar abilene_cost_network.node[4].content_store 	decision_ratio[4] 	0.002917318912765
scalar abilene_cost_network.node[4].content_store 	correction_factor[4] 	0.00027225701061802
scalar abilene_cost_network.node[4].content_store 	kappa[4] 	1
scalar abilene_cost_network.node[5].core_layer 	interests[5] 	0
scalar abilene_cost_network.node[5].core_layer 	data[5] 	0
scalar abilene_cost_network.node[5].content_store 	p_hit[5] 	-nan
scalar abilene_cost_network.node[5].content_store 	hits[5] 	0
scalar abilene_cost_network.node[5].content_store 	misses[5] 	0
scalar abilene_cost_network.node[5].content_store 	decision_yes[5] 	0
scalar abilene_cost_network.node[5].content_store 	decision_no[5] 	0
scalar abilene_cost_network.node[5].content_store 	decision_ratio[5] 	0
scalar abilene_cost_network.node[5].content_store 	correction_factor[5] 	0.00027225701061802
scalar abilene_cost_network.node[5].content_store 	kappa[5] 	1
scalar abilene_cost_network.node[6].core_layer 	interests[6] 	0
scalar abilene_cost_network.node[6].core_layer 	data[6] 	0
scalar abilene_cost_network.node[6].content_store 	p_hit[6] 	-nan
scalar abilene_cost_network.node[6].content_store 	hits[6] 	0
scalar abilene_cost_network.node[6].content_store 	misses[6] 	0
scalar abilene_cost_network.node[6].content_store 	decision_yes[6] 	0
scalar abilene_cost_network.node[6].content_store 	decision_no[6] 	0
scalar abilene_cost_network.node[6].content_store 	decision_ratio[6] 	0
scalar abilene_cost_network.node[6].content_store 	correction_factor[6] 	0.00027225701061802
scalar abilene_cost_network.node[6].content_store 	kappa[6] 	1
scalar abilene_cost_network.node[7].core_layer 	interests[7] 	0
scalar abilene_cost_network.node[7].core_layer 	data[7] 	0
scalar abilene_cost_network.node[7].content_store 	p_hit[7] 	-nan
scalar abilene_cost_network.node[7].content_store 	hits[7] 	0
scalar abilene_cost_network.node[7].content_store 	misses[7] 	0
scalar abilene_cost_network.node[7].content_store 	decision_yes[7] 	0
scalar abilene_cost_network.node[7].content_store 	decision_no[7] 	0
scalar abilene_cost_network.node[7].content_store 	decision_ratio[7] 	0
scalar abilene_cost_network.node[7].content_store 	correction_factor[7] 	0.00027225701061802
scalar abilene_cost_network.node[7].content_store 	kappa[7] 	1
scalar abilene_cost_network.node[8].core_layer 	interests[8] 	41864
scalar abilene_cost_network.node[8].core_layer 	data[8] 	38969
scalar abilene_cost_network.node[8].content_store 	p_hit[8] 	0.069176380661189
scalar abilene_cost_network.node[8].content_store 	hits[8] 	2896
scalar abilene_cost_network.node[8].content_store 	misses[8] 	38968
scalar abilene_cost_network.node[8].content_store 	decision_yes[8] 	72
scalar abilene_cost_network.node[8].content_store 	decision_no[8] 	38897
scalar abilene_cost_network.node[8].content_store 	decision_ratio[8] 	0.0018476224691421
scalar abilene_cost_network.node[8].content_store 	correction_factor[8] 	0.00027225701061802
scalar abilene_cost_network.node[8].content_store 	kappa[8] 	1
scalar abilene_cost_network.node[9].core_layer 	interests[9] 	303747
scalar abilene_cost_network.node[9].core_layer 	repo_load[9] 	185852
scalar abilene_cost_network.node[9].core_layer 	data[9] 	108669
scalar abilene_cost_network.node[9].content_store 	p_hit[9] 	0.024629049834237
scalar abilene_cost_network.node[9].content_store 	hits[9] 	7481
scalar abilene_cost_network.node[9].content_store 	misses[9] 	296266
scalar abilene_cost_network.node[9].content_store 	decision_yes[9] 	64
scalar abilene_cost_network.node[9].content_store 	decision_no[9] 	294457
scalar abilene_cost_network.node[9].content_store 	decision_ratio[9] 	0.00021730199204811
scalar abilene_cost_network.node[9].content_store 	correction_factor[9] 	0.00027225701061802
scalar abilene_cost_network.node[9].content_store 	kappa[9] 	1
scalar abilene_cost_network.node[10].core_layer 	interests[10] 	190691
scalar abilene_cost_network.node[10].core_layer 	data[10] 	185464
scalar abilene_cost_network.node[10].content_store 	p_hit[10] 	0.026115548190528
scalar abilene_cost_network.node[10].content_store 	hits[10] 	4980
scalar abilene_cost_network.node[10].content_store 	misses[10] 	185711
scalar abilene_cost_network.node[10].content_store 	decision_yes[10] 	5
scalar abilene_cost_network.node[10].content_store 	decision_no[10] 	185459
scalar abilene_cost_network.node[10].content_store 	decision_ratio[10] 	2.6959409912436e-05
scalar abilene_cost_network.node[10].content_store 	correction_factor[10] 	0.00027225701061802
scalar abilene_cost_network.node[10].content_store 	kappa[10] 	1
scalar abilene_cost_network.client[0] 	hdistance[0] 	2.1588126678603
scalar abilene_cost_network.client[0] 	downloads[0] 	178720
scalar abilene_cost_network.client[0] 	avg_time[0] 	0.009048363552
scalar abilene_cost_network.client[1] 	hdistance[1] 	2.3013973292481
scalar abilene_cost_network.client[1] 	downloads[1] 	177553
scalar abilene_cost_network.client[1] 	avg_time[1] 	0.011275823099
scalar abilene_cost_network.client[9] 	hdistance[9] 	2.1526165887353
scalar abilene_cost_network.client[9] 	downloads[9] 	178362
scalar abilene_cost_network.client[9] 	avg_time[9] 	0.010015410933
