version 2
run General-6-20150902-20:25:23-25224
attr C 1e3
attr D fix0.001
attr F spr
attr R partitionedn
attr a 1
attr brates 0.3_0.7_1.5_2.5_3.5
attr configname General
attr ctlg 1e5
attr datetime 20150902-20:25:23
attr experiment General
attr inifile omnetpp.ini
attr iterationvars "$net=abilene_nodelay, $rep=0, $lambda=100, $a=1, $ctlg=1e5, $brates=0.3_0.7_1.5_2.5_3.5, $F=spr, $ttl=1000, $D=fix0.001, $R=partitionedn, $proactiveprob=0.01, $C=1e3, $window=60, $variance=0.05, $mytime=180000"
attr iterationvars2 "$net=abilene_nodelay, $rep=0, $lambda=100, $a=1, $ctlg=1e5, $brates=0.3_0.7_1.5_2.5_3.5, $F=spr, $ttl=1000, $D=fix0.001, $R=partitionedn, $proactiveprob=0.01, $C=1e3, $window=60, $variance=0.05, $mytime=180000, $repetition=0"
attr lambda 100
attr measurement "$net=abilene_nodelay, $rep=0, $lambda=100, $a=1, $ctlg=1e5, $brates=0.3_0.7_1.5_2.5_3.5, $F=spr, $ttl=1000, $D=fix0.001, $R=partitionedn, $proactiveprob=0.01, $C=1e3, $window=60, $variance=0.05, $mytime=180000"
attr mytime 180000
attr net abilene_nodelay
attr network networks.${net=abilene_nodelay}_network
attr proactiveprob 0.01
attr processid 25224
attr rep 0
attr repetition 0
attr replication #0
attr resultdir results
attr runnumber 6
attr seedset 0
attr ttl 1000
attr variance 0.05
attr window 60

scalar . 	C 	1e3
scalar . 	a 	1
scalar . 	ctlg 	1e5
scalar . 	lambda 	100
scalar . 	mytime 	180000
scalar . 	proactiveprob 	0.01
scalar . 	rep 	0
scalar . 	ttl 	1000
scalar . 	variance 	0.05
scalar . 	window 	60
scalar abilene_nodelay_network.content_distribution 	repo-0 	5
scalar abilene_nodelay_network.content_distribution 	repo-1 	8
scalar abilene_nodelay_network.content_distribution 	repo-2 	9
scalar abilene_nodelay_network.content_distribution 	repo-3 	0
scalar abilene_nodelay_network.content_distribution 	repo-4 	1
scalar abilene_nodelay_network.content_distribution 	repo-5 	7
scalar abilene_nodelay_network.content_distribution 	repo-6 	6
scalar abilene_nodelay_network.content_distribution 	repo-7 	2
scalar abilene_nodelay_network.content_distribution 	repo-8 	4
scalar abilene_nodelay_network.content_distribution 	repo-9 	10
scalar abilene_nodelay_network.content_distribution 	repo-10 	3
scalar abilene_nodelay_network.content_distribution 	client-0 	10
scalar abilene_nodelay_network.content_distribution 	client-1 	9
scalar abilene_nodelay_network.content_distribution 	client-2 	8
scalar abilene_nodelay_network.content_distribution 	client-3 	7
scalar abilene_nodelay_network.content_distribution 	client-4 	3
scalar abilene_nodelay_network.content_distribution 	client-5 	6
scalar abilene_nodelay_network.content_distribution 	client-6 	5
scalar abilene_nodelay_network.content_distribution 	client-7 	1
scalar abilene_nodelay_network.content_distribution 	client-8 	4
scalar abilene_nodelay_network.content_distribution 	client-9 	0
scalar abilene_nodelay_network.content_distribution 	client-10 	2
scalar abilene_nodelay_network.content_distribution 	repo-0_card 	9071
scalar abilene_nodelay_network.content_distribution 	repo-0_price 	0
scalar abilene_nodelay_network.content_distribution 	repo-1_card 	8986
scalar abilene_nodelay_network.content_distribution 	repo-1_price 	0
scalar abilene_nodelay_network.content_distribution 	repo-2_card 	9050
scalar abilene_nodelay_network.content_distribution 	repo-2_price 	0
scalar abilene_nodelay_network.content_distribution 	repo-3_card 	8986
scalar abilene_nodelay_network.content_distribution 	repo-3_price 	0
scalar abilene_nodelay_network.content_distribution 	repo-4_card 	9064
scalar abilene_nodelay_network.content_distribution 	repo-4_price 	0
scalar abilene_nodelay_network.content_distribution 	repo-5_card 	9170
scalar abilene_nodelay_network.content_distribution 	repo-5_price 	0
scalar abilene_nodelay_network.content_distribution 	repo-6_card 	9151
scalar abilene_nodelay_network.content_distribution 	repo-6_price 	0
scalar abilene_nodelay_network.content_distribution 	repo-7_card 	9112
scalar abilene_nodelay_network.content_distribution 	repo-7_price 	0
scalar abilene_nodelay_network.content_distribution 	repo-8_card 	9132
scalar abilene_nodelay_network.content_distribution 	repo-8_price 	0
scalar abilene_nodelay_network.content_distribution 	repo-9_card 	9101
scalar abilene_nodelay_network.content_distribution 	repo-9_price 	0
scalar abilene_nodelay_network.content_distribution 	repo-10_card 	9177
scalar abilene_nodelay_network.content_distribution 	repo-10_price 	0
scalar abilene_nodelay_network.statistics 	stabilization_time 	36060
scalar abilene_nodelay_network.statistics 	p_hit 	0.22365597380286
scalar abilene_nodelay_network.statistics 	interests 	37898490.181818
scalar abilene_nodelay_network.statistics 	data 	19849136.818182
scalar abilene_nodelay_network.statistics 	hdistance 	1.6277126553166
scalar abilene_nodelay_network.statistics 	avg_time 	0
scalar abilene_nodelay_network.statistics 	downloads 	197980075
scalar abilene_nodelay_network.statistics 	total_cost 	0
scalar abilene_nodelay_network.statistics 	total_replicas 	100000
scalar abilene_nodelay_network.statistics 	"representations_downloaded 0.637351:0.104591:0.040152:0.0309654:0.186941:" 	0
scalar abilene_nodelay_network.statistics 	"slots_per_representation 100:233:500:833:1167:" 	0
scalar abilene_nodelay_network.statistics 	inner_hit 	0.4681059394487
scalar abilene_nodelay_network.statistics 	execution_time 	8431
scalar abilene_nodelay_network.node[0].core_layer 	interests[0] 	25421721
scalar abilene_nodelay_network.node[0].core_layer 	repo_load[0] 	8661171
scalar abilene_nodelay_network.node[0].core_layer 	data[0] 	8922685
scalar abilene_nodelay_network.node[0].core_layer 	slots_sent[face$o[1]->client[0]] 	5745474897
scalar abilene_nodelay_network.node[0].core_layer 	slots_sent[face$o[2]->node[1]] 	573481912
scalar abilene_nodelay_network.node[0].core_layer 	slots_sent[face$o[3]->node[10]] 	175699169
scalar abilene_nodelay_network.node[0].content_store 	p_hit[0] 	0.30831370543324
scalar abilene_nodelay_network.node[0].content_store 	hits[0] 	7837865
scalar abilene_nodelay_network.node[0].content_store 	misses[0] 	17583856
scalar abilene_nodelay_network.node[0].content_store 	decision_yes[0] 	8948
scalar abilene_nodelay_network.node[0].content_store 	decision_no[0] 	17574908
scalar abilene_nodelay_network.node[0].content_store 	decision_ratio[0] 	0.00050887586886517
scalar abilene_nodelay_network.node[0].content_store 	"representation_breakdown[0] 0x7fff4aff9448:0x7fff4aff9448:0x7fff4aff9448:0x7fff4aff9448:0x7fff4aff9448:" 	0
scalar abilene_nodelay_network.node[0].proactive_component 	hdistance[0].proactive_component 	2.6684772972712
scalar abilene_nodelay_network.node[0].proactive_component 	downloads[0].proactive_component 	62041
scalar abilene_nodelay_network.node[0].proactive_component 	avg_time[0].proactive_component 	0
scalar abilene_nodelay_network.node[1].core_layer 	interests[1] 	44063323
scalar abilene_nodelay_network.node[1].core_layer 	repo_load[1] 	9894993
scalar abilene_nodelay_network.node[1].core_layer 	data[1] 	25580921
scalar abilene_nodelay_network.node[1].core_layer 	slots_sent[face$o[1]->client[1]] 	6402904069
scalar abilene_nodelay_network.node[1].core_layer 	slots_sent[face$o[2]->node[0]] 	736790976
scalar abilene_nodelay_network.node[1].core_layer 	slots_sent[face$o[3]->node[10]] 	555262412
scalar abilene_nodelay_network.node[1].core_layer 	slots_sent[face$o[4]->node[2]] 	1394607661
scalar abilene_nodelay_network.node[1].content_store 	p_hit[1] 	0.19488791165387
scalar abilene_nodelay_network.node[1].content_store 	hits[1] 	8587409
scalar abilene_nodelay_network.node[1].content_store 	misses[1] 	35475914
scalar abilene_nodelay_network.node[1].content_store 	decision_yes[1] 	25287
scalar abilene_nodelay_network.node[1].content_store 	decision_no[1] 	35450627
scalar abilene_nodelay_network.node[1].content_store 	decision_ratio[1] 	0.00071279347446834
scalar abilene_nodelay_network.node[1].content_store 	"representation_breakdown[1] 0x7fff4aff9448:0x7fff4aff9448:0x7fff4aff9448:0x7fff4aff9448:0x7fff4aff9448:" 	0
scalar abilene_nodelay_network.node[1].proactive_component 	hdistance[1].proactive_component 	2.6451193390453
scalar abilene_nodelay_network.node[1].proactive_component 	downloads[1].proactive_component 	65360
scalar abilene_nodelay_network.node[1].proactive_component 	avg_time[1].proactive_component 	0
scalar abilene_nodelay_network.node[2].core_layer 	interests[2] 	58066747
scalar abilene_nodelay_network.node[2].core_layer 	repo_load[2] 	10950997
scalar abilene_nodelay_network.node[2].core_layer 	data[2] 	37884016
scalar abilene_nodelay_network.node[2].core_layer 	slots_sent[face$o[1]->client[2]] 	6569612822
scalar abilene_nodelay_network.node[2].core_layer 	slots_sent[face$o[2]->node[1]] 	1557153019
scalar abilene_nodelay_network.node[2].core_layer 	slots_sent[face$o[3]->node[3]] 	1811867043
scalar abilene_nodelay_network.node[2].core_layer 	slots_sent[face$o[4]->node[8]] 	747376860
scalar abilene_nodelay_network.node[2].content_store 	p_hit[2] 	0.15898486615756
scalar abilene_nodelay_network.node[2].content_store 	hits[2] 	9231734
scalar abilene_nodelay_network.node[2].content_store 	misses[2] 	48835013
scalar abilene_nodelay_network.node[2].content_store 	decision_yes[2] 	38111
scalar abilene_nodelay_network.node[2].content_store 	decision_no[2] 	48796902
scalar abilene_nodelay_network.node[2].content_store 	decision_ratio[2] 	0.0007804031914561
scalar abilene_nodelay_network.node[2].content_store 	"representation_breakdown[2] 0x7fff4aff9448:0x7fff4aff9448:0x7fff4aff9448:0x7fff4aff9448:0x7fff4aff9448:" 	0
scalar abilene_nodelay_network.node[2].proactive_component 	hdistance[2].proactive_component 	2.4234267153877
scalar abilene_nodelay_network.node[2].proactive_component 	downloads[2].proactive_component 	73890
scalar abilene_nodelay_network.node[2].proactive_component 	avg_time[2].proactive_component 	0
scalar abilene_nodelay_network.node[3].core_layer 	interests[3] 	54713538
scalar abilene_nodelay_network.node[3].core_layer 	repo_load[3] 	9827403
scalar abilene_nodelay_network.node[3].core_layer 	data[3] 	34999598
scalar abilene_nodelay_network.node[3].core_layer 	slots_sent[face$o[1]->client[3]] 	7033275447
scalar abilene_nodelay_network.node[3].core_layer 	slots_sent[face$o[2]->node[2]] 	1811924734
scalar abilene_nodelay_network.node[3].core_layer 	slots_sent[face$o[3]->node[4]] 	1147278791
scalar abilene_nodelay_network.node[3].core_layer 	slots_sent[face$o[4]->node[7]] 	817666781
scalar abilene_nodelay_network.node[3].content_store 	p_hit[3] 	0.18069635708808
scalar abilene_nodelay_network.node[3].content_store 	hits[3] 	9886537
scalar abilene_nodelay_network.node[3].content_store 	misses[3] 	44827001
scalar abilene_nodelay_network.node[3].content_store 	decision_yes[3] 	34982
scalar abilene_nodelay_network.node[3].content_store 	decision_no[3] 	44792019
scalar abilene_nodelay_network.node[3].content_store 	decision_ratio[3] 	0.00078037787984077
scalar abilene_nodelay_network.node[3].content_store 	"representation_breakdown[3] 0x7fff4aff9448:0x7fff4aff9448:0x7fff4aff9448:0x7fff4aff9448:0x7fff4aff9448:" 	0
scalar abilene_nodelay_network.node[3].proactive_component 	hdistance[3].proactive_component 	2.3273077117828
scalar abilene_nodelay_network.node[3].proactive_component 	downloads[3].proactive_component 	78996
scalar abilene_nodelay_network.node[3].proactive_component 	avg_time[3].proactive_component 	0
scalar abilene_nodelay_network.node[4].core_layer 	interests[4] 	33832526
scalar abilene_nodelay_network.node[4].core_layer 	repo_load[4] 	8907840
scalar abilene_nodelay_network.node[4].core_layer 	data[4] 	16367222
scalar abilene_nodelay_network.node[4].core_layer 	slots_sent[face$o[1]->client[4]] 	6585098402
scalar abilene_nodelay_network.node[4].core_layer 	slots_sent[face$o[2]->node[3]] 	1001272589
scalar abilene_nodelay_network.node[4].core_layer 	slots_sent[face$o[3]->node[5]] 	624532887
scalar abilene_nodelay_network.node[4].content_store 	p_hit[4] 	0.25293600601977
scalar abilene_nodelay_network.node[4].content_store 	hits[4] 	8557464
scalar abilene_nodelay_network.node[4].content_store 	misses[4] 	25275062
scalar abilene_nodelay_network.node[4].content_store 	decision_yes[4] 	16562
scalar abilene_nodelay_network.node[4].content_store 	decision_no[4] 	25258500
scalar abilene_nodelay_network.node[4].content_store 	decision_ratio[4] 	0.00065527040052365
scalar abilene_nodelay_network.node[4].content_store 	"representation_breakdown[4] 0x7fff4aff9448:0x7fff4aff9448:0x7fff4aff9448:0x7fff4aff9448:0x7fff4aff9448:" 	0
scalar abilene_nodelay_network.node[4].proactive_component 	hdistance[4].proactive_component 	2.5250276527131
scalar abilene_nodelay_network.node[4].proactive_component 	downloads[4].proactive_component 	64189
scalar abilene_nodelay_network.node[4].proactive_component 	avg_time[4].proactive_component 	0
scalar abilene_nodelay_network.node[5].core_layer 	interests[5] 	27477974
scalar abilene_nodelay_network.node[5].core_layer 	repo_load[5] 	10261238
scalar abilene_nodelay_network.node[5].core_layer 	data[5] 	10406156
scalar abilene_nodelay_network.node[5].core_layer 	slots_sent[face$o[1]->client[5]] 	4992218319
scalar abilene_nodelay_network.node[5].core_layer 	slots_sent[face$o[2]->node[4]] 	545597222
scalar abilene_nodelay_network.node[5].core_layer 	slots_sent[face$o[3]->node[6]] 	416226860
scalar abilene_nodelay_network.node[5].content_store 	p_hit[5] 	0.24785597366094
scalar abilene_nodelay_network.node[5].content_store 	hits[5] 	6810580
scalar abilene_nodelay_network.node[5].content_store 	misses[5] 	20667394
scalar abilene_nodelay_network.node[5].content_store 	decision_yes[5] 	10474
scalar abilene_nodelay_network.node[5].content_store 	decision_no[5] 	20656920
scalar abilene_nodelay_network.node[5].content_store 	decision_ratio[5] 	0.00050678861592323
scalar abilene_nodelay_network.node[5].content_store 	"representation_breakdown[5] 0x7fff4aff9448:0x7fff4aff9448:0x7fff4aff9448:0x7fff4aff9448:0x7fff4aff9448:" 	0
scalar abilene_nodelay_network.node[5].proactive_component 	hdistance[5].proactive_component 	2.7143053716094
scalar abilene_nodelay_network.node[5].proactive_component 	downloads[5].proactive_component 	58139
scalar abilene_nodelay_network.node[5].proactive_component 	avg_time[5].proactive_component 	0
scalar abilene_nodelay_network.node[6].core_layer 	interests[6] 	31001823
scalar abilene_nodelay_network.node[6].core_layer 	repo_load[6] 	9074862
scalar abilene_nodelay_network.node[6].core_layer 	data[6] 	13543571
scalar abilene_nodelay_network.node[6].core_layer 	slots_sent[face$o[1]->client[6]] 	6528093393
scalar abilene_nodelay_network.node[6].core_layer 	slots_sent[face$o[2]->node[5]] 	452718253
scalar abilene_nodelay_network.node[6].core_layer 	slots_sent[face$o[3]->node[7]] 	866878385
scalar abilene_nodelay_network.node[6].content_store 	p_hit[6] 	0.27041603327649
scalar abilene_nodelay_network.node[6].content_store 	hits[6] 	8383390
scalar abilene_nodelay_network.node[6].content_store 	misses[6] 	22618433
scalar abilene_nodelay_network.node[6].content_store 	decision_yes[6] 	13515
scalar abilene_nodelay_network.node[6].content_store 	decision_no[6] 	22604918
scalar abilene_nodelay_network.node[6].content_store 	decision_ratio[6] 	0.00059752149938946
scalar abilene_nodelay_network.node[6].content_store 	"representation_breakdown[6] 0x7fff4aff9448:0x7fff4aff9448:0x7fff4aff9448:0x7fff4aff9448:0x7fff4aff9448:" 	0
scalar abilene_nodelay_network.node[6].proactive_component 	hdistance[6].proactive_component 	2.5845830344918
scalar abilene_nodelay_network.node[6].proactive_component 	downloads[6].proactive_component 	61348
scalar abilene_nodelay_network.node[6].proactive_component 	avg_time[6].proactive_component 	0
scalar abilene_nodelay_network.node[7].core_layer 	interests[7] 	41885296
scalar abilene_nodelay_network.node[7].core_layer 	repo_load[7] 	9740631
scalar abilene_nodelay_network.node[7].core_layer 	data[7] 	22853057
scalar abilene_nodelay_network.node[7].core_layer 	slots_sent[face$o[1]->client[7]] 	7197844950
scalar abilene_nodelay_network.node[7].core_layer 	slots_sent[face$o[2]->node[3]] 	764867281
scalar abilene_nodelay_network.node[7].core_layer 	slots_sent[face$o[3]->node[6]] 	989518424
scalar abilene_nodelay_network.node[7].core_layer 	slots_sent[face$o[4]->node[8]] 	700947766
scalar abilene_nodelay_network.node[7].content_store 	p_hit[7] 	0.22183460276848
scalar abilene_nodelay_network.node[7].content_store 	hits[7] 	9291608
scalar abilene_nodelay_network.node[7].content_store 	misses[7] 	32593688
scalar abilene_nodelay_network.node[7].content_store 	decision_yes[7] 	23018
scalar abilene_nodelay_network.node[7].content_store 	decision_no[7] 	32570670
scalar abilene_nodelay_network.node[7].content_store 	decision_ratio[7] 	0.00070621035582104
scalar abilene_nodelay_network.node[7].content_store 	"representation_breakdown[7] 0x7fff4aff9448:0x7fff4aff9448:0x7fff4aff9448:0x7fff4aff9448:0x7fff4aff9448:" 	0
scalar abilene_nodelay_network.node[7].proactive_component 	hdistance[7].proactive_component 	2.5374693781175
scalar abilene_nodelay_network.node[7].proactive_component 	downloads[7].proactive_component 	67762
scalar abilene_nodelay_network.node[7].proactive_component 	avg_time[7].proactive_component 	0
scalar abilene_nodelay_network.node[8].core_layer 	interests[8] 	39902787
scalar abilene_nodelay_network.node[8].core_layer 	repo_load[8] 	8987135
scalar abilene_nodelay_network.node[8].core_layer 	data[8] 	21704892
scalar abilene_nodelay_network.node[8].core_layer 	slots_sent[face$o[1]->client[8]] 	6778823606
scalar abilene_nodelay_network.node[8].core_layer 	slots_sent[face$o[2]->node[2]] 	657804285
scalar abilene_nodelay_network.node[8].core_layer 	slots_sent[face$o[3]->node[7]] 	660007644
scalar abilene_nodelay_network.node[8].core_layer 	slots_sent[face$o[4]->node[9]] 	919237819
scalar abilene_nodelay_network.node[8].content_store 	p_hit[8] 	0.23082999190006
scalar abilene_nodelay_network.node[8].content_store 	hits[8] 	9210760
scalar abilene_nodelay_network.node[8].content_store 	misses[8] 	30692027
scalar abilene_nodelay_network.node[8].content_store 	decision_yes[8] 	21385
scalar abilene_nodelay_network.node[8].content_store 	decision_no[8] 	30670642
scalar abilene_nodelay_network.node[8].content_store 	decision_ratio[8] 	0.00069676075809525
scalar abilene_nodelay_network.node[8].content_store 	"representation_breakdown[8] 0x7fff4aff9448:0x7fff4aff9448:0x7fff4aff9448:0x7fff4aff9448:0x7fff4aff9448:" 	0
scalar abilene_nodelay_network.node[8].proactive_component 	hdistance[8].proactive_component 	2.234380505405
scalar abilene_nodelay_network.node[8].proactive_component 	downloads[8].proactive_component 	70953
scalar abilene_nodelay_network.node[8].proactive_component 	avg_time[8].proactive_component 	0
scalar abilene_nodelay_network.node[9].core_layer 	interests[9] 	30986176
scalar abilene_nodelay_network.node[9].core_layer 	repo_load[9] 	9361483
scalar abilene_nodelay_network.node[9].core_layer 	data[9] 	13758224
scalar abilene_nodelay_network.node[9].core_layer 	slots_sent[face$o[1]->client[9]] 	6242984249
scalar abilene_nodelay_network.node[9].core_layer 	slots_sent[face$o[2]->node[10]] 	538591695
scalar abilene_nodelay_network.node[9].core_layer 	slots_sent[face$o[3]->node[8]] 	782019982
scalar abilene_nodelay_network.node[9].content_store 	p_hit[9] 	0.25387027427973
scalar abilene_nodelay_network.node[9].content_store 	hits[9] 	7866469
scalar abilene_nodelay_network.node[9].content_store 	misses[9] 	23119707
scalar abilene_nodelay_network.node[9].content_store 	decision_yes[9] 	13886
scalar abilene_nodelay_network.node[9].content_store 	decision_no[9] 	23105821
scalar abilene_nodelay_network.node[9].content_store 	decision_ratio[9] 	0.00060061314790884
scalar abilene_nodelay_network.node[9].content_store 	"representation_breakdown[9] 0x7fff4aff9448:0x7fff4aff9448:0x7fff4aff9448:0x7fff4aff9448:0x7fff4aff9448:" 	0
scalar abilene_nodelay_network.node[9].proactive_component 	hdistance[9].proactive_component 	2.5463967555201
scalar abilene_nodelay_network.node[9].proactive_component 	downloads[9].proactive_component 	57698
scalar abilene_nodelay_network.node[9].proactive_component 	avg_time[9].proactive_component 	0
scalar abilene_nodelay_network.node[10].core_layer 	interests[10] 	29531481
scalar abilene_nodelay_network.node[10].core_layer 	repo_load[10] 	9636673
scalar abilene_nodelay_network.node[10].core_layer 	data[10] 	12320163
scalar abilene_nodelay_network.node[10].core_layer 	slots_sent[face$o[1]->client[10]] 	5639439279
scalar abilene_nodelay_network.node[10].core_layer 	slots_sent[face$o[2]->node[0]] 	192773227
scalar abilene_nodelay_network.node[10].core_layer 	slots_sent[face$o[3]->node[1]] 	485915958
scalar abilene_nodelay_network.node[10].core_layer 	slots_sent[face$o[4]->node[9]] 	495402975
scalar abilene_nodelay_network.node[10].content_store 	p_hit[10] 	0.25649390899156
scalar abilene_nodelay_network.node[10].content_store 	hits[10] 	7574645
scalar abilene_nodelay_network.node[10].content_store 	misses[10] 	21956836
scalar abilene_nodelay_network.node[10].content_store 	decision_yes[10] 	12278
scalar abilene_nodelay_network.node[10].content_store 	decision_no[10] 	21944558
scalar abilene_nodelay_network.node[10].content_store 	decision_ratio[10] 	0.00055918803601758
scalar abilene_nodelay_network.node[10].content_store 	"representation_breakdown[10] 0x7fff4aff9448:0x7fff4aff9448:0x7fff4aff9448:0x7fff4aff9448:0x7fff4aff9448:" 	0
scalar abilene_nodelay_network.node[10].proactive_component 	hdistance[10].proactive_component 	2.3970992495151
scalar abilene_nodelay_network.node[10].proactive_component 	downloads[10].proactive_component 	59295
scalar abilene_nodelay_network.node[10].proactive_component 	avg_time[10].proactive_component 	0
scalar abilene_nodelay_network.client[0] 	hdistance[0].real 	1.8363798566415
scalar abilene_nodelay_network.client[0] 	downloads[0].real 	17997674
scalar abilene_nodelay_network.client[0] 	avg_time[0].real 	0
scalar abilene_nodelay_network.client[1] 	hdistance[1].real 	1.6090476840314
scalar abilene_nodelay_network.client[1] 	downloads[1].real 	17997136
scalar abilene_nodelay_network.client[1] 	avg_time[1].real 	0
scalar abilene_nodelay_network.client[2] 	hdistance[2].real 	1.4371667802717
scalar abilene_nodelay_network.client[2] 	downloads[2].real 	17996571
scalar abilene_nodelay_network.client[2] 	avg_time[2].real 	0
scalar abilene_nodelay_network.client[3] 	hdistance[3].real 	1.4389992219929
scalar abilene_nodelay_network.client[3] 	downloads[3].real 	17999836
scalar abilene_nodelay_network.client[3] 	avg_time[3].real 	0
scalar abilene_nodelay_network.client[4] 	hdistance[4].real 	1.6883405882388
scalar abilene_nodelay_network.client[4] 	downloads[4].real 	18003910
scalar abilene_nodelay_network.client[4] 	avg_time[4].real 	0
scalar abilene_nodelay_network.client[5] 	hdistance[5].real 	1.8815217124972
scalar abilene_nodelay_network.client[5] 	downloads[5].real 	17998091
scalar abilene_nodelay_network.client[5] 	avg_time[5].real 	0
scalar abilene_nodelay_network.client[6] 	hdistance[6].real 	1.7133373697425
scalar abilene_nodelay_network.client[6] 	downloads[6].real 	18002800
scalar abilene_nodelay_network.client[6] 	avg_time[6].real 	0
scalar abilene_nodelay_network.client[7] 	hdistance[7].real 	1.4722188666639
scalar abilene_nodelay_network.client[7] 	downloads[7].real 	17996674
scalar abilene_nodelay_network.client[7] 	avg_time[7].real 	0
scalar abilene_nodelay_network.client[8] 	hdistance[8].real 	1.4465267084156
scalar abilene_nodelay_network.client[8] 	downloads[8].real 	17994890
scalar abilene_nodelay_network.client[8] 	avg_time[8].real 	0
scalar abilene_nodelay_network.client[9] 	hdistance[9].real 	1.652195491676
scalar abilene_nodelay_network.client[9] 	downloads[9].real 	17998884
scalar abilene_nodelay_network.client[9] 	avg_time[9].real 	0
scalar abilene_nodelay_network.client[10] 	hdistance[10].real 	1.7291049283109
scalar abilene_nodelay_network.client[10] 	downloads[10].real 	17993609
scalar abilene_nodelay_network.client[10] 	avg_time[10].real 	0
