version 2
run General-9-20150404-04:58:05-21656
attr D fix0.01
attr F nrr
attr R lru
attr a 1.2
attr configname General
attr csize 1e3
attr ctlg 1e5
attr datetime 20150404-04:58:05
attr experiment General
attr inifile omnetpp.ini
attr iterationvars "$rep=6, $net=cost_scenario, $lambda=100, $a=1.2, $ctlg=1e5, $F=nrr, $ttl=10, $D=fix0.01, $R=lru, $csize=1e3, $window=60, $variance=0.05, $mytime=1800000, $kappa=1, $priceratiovalue=10, $splits=0.333_0.333_0.334, $pricebits=0"
attr iterationvars2 "$rep=6, $net=cost_scenario, $lambda=100, $a=1.2, $ctlg=1e5, $F=nrr, $ttl=10, $D=fix0.01, $R=lru, $csize=1e3, $window=60, $variance=0.05, $mytime=1800000, $kappa=1, $priceratiovalue=10, $splits=0.333_0.333_0.334, $pricebits=0, $repetition=0"
attr kappa 1
attr lambda 100
attr measurement "$rep=6, $net=cost_scenario, $lambda=100, $a=1.2, $ctlg=1e5, $F=nrr, $ttl=10, $D=fix0.01, $R=lru, $csize=1e3, $window=60, $variance=0.05, $mytime=1800000, $kappa=1, $priceratiovalue=10, $splits=0.333_0.333_0.334, $pricebits=0"
attr mytime 1800000
attr net cost_scenario
attr network networks.${net=cost_scenario}_network
attr pricebits 0
attr priceratiovalue 10
attr processid 21656
attr rep 6
attr repetition 0
attr replication #0
attr resultdir results
attr runnumber 9
attr seedset 6
attr splits 0.333_0.333_0.334
attr ttl 10
attr variance 0.05
attr window 60

scalar . 	a 	1.2
scalar . 	csize 	1e3
scalar . 	ctlg 	1e5
scalar . 	kappa 	1
scalar . 	lambda 	100
scalar . 	mytime 	1800000
scalar . 	pricebits 	0
scalar . 	priceratiovalue 	10
scalar . 	rep 	6
scalar . 	ttl 	10
scalar . 	variance 	0.05
scalar . 	window 	60
scalar cost_scenario_network.content_distribution 	repo-0 	1
scalar cost_scenario_network.content_distribution 	repo-1 	2
scalar cost_scenario_network.content_distribution 	repo-2 	3
scalar cost_scenario_network.content_distribution 	client-0 	0
scalar cost_scenario_network.content_distribution 	repo-0_card 	33436
scalar cost_scenario_network.content_distribution 	repo-0_price 	10
scalar cost_scenario_network.content_distribution 	repo-1_card 	33143
scalar cost_scenario_network.content_distribution 	repo-1_price 	1
scalar cost_scenario_network.content_distribution 	repo-2_card 	33421
scalar cost_scenario_network.content_distribution 	repo-2_price 	0
scalar cost_scenario_network.statistics 	repo_popularity[0] 	0.28391304009556
scalar cost_scenario_network.statistics 	repo_popularity[1] 	0.41514026330762
scalar cost_scenario_network.statistics 	repo_popularity[2] 	0.30094669659681
scalar cost_scenario_network.statistics 	stabilization_time 	3910.4
scalar cost_scenario_network.statistics 	p_hit 	0.72852386494049
scalar cost_scenario_network.statistics 	interests 	52068519.75
scalar cost_scenario_network.statistics 	data 	7067680.25
scalar cost_scenario_network.statistics 	hdistance 	0.31411326226484
scalar cost_scenario_network.statistics 	avg_time 	0
scalar cost_scenario_network.statistics 	downloads 	180003358
scalar cost_scenario_network.statistics 	total_cost 	102946075
scalar cost_scenario_network.statistics 	total_replicas 	100000
scalar cost_scenario_network.statistics 	inner_hit 	0.8429433688676
scalar cost_scenario_network.statistics 	interests_sent 	180003358
scalar cost_scenario_network.node[0].core_layer 	interests[0] 	180003358
scalar cost_scenario_network.node[0].core_layer 	data[0] 	28270721
scalar cost_scenario_network.node[0].core_layer 	repo_int[0] 	28270721
scalar cost_scenario_network.node[0].content_store 	p_hit[0] 	0.8429433688676
scalar cost_scenario_network.node[0].content_store 	hits[0] 	151732637
scalar cost_scenario_network.node[0].content_store 	misses[0] 	28270721
scalar cost_scenario_network.node[0].content_store 	decision_yes[0] 	282078
scalar cost_scenario_network.node[0].content_store 	decision_no[0] 	27988643
scalar cost_scenario_network.node[0].content_store 	decision_ratio[0] 	0.0099777434045633
scalar cost_scenario_network.node[0].content_store 	cache_value[0] 	13.667292085073
scalar cost_scenario_network.node[0].content_store 	average_price_of_cache[0] 	3.863
scalar cost_scenario_network.node[1].core_layer 	interests[1] 	9325900
scalar cost_scenario_network.node[1].core_layer 	repo_load[1] 	9325900
scalar cost_scenario_network.node[1].core_layer 	data[1] 	0
scalar cost_scenario_network.node[1].content_store 	p_hit[1] 	0
scalar cost_scenario_network.node[1].content_store 	hits[1] 	0
scalar cost_scenario_network.node[1].content_store 	misses[1] 	9325900
scalar cost_scenario_network.node[1].content_store 	decision_yes[1] 	0
scalar cost_scenario_network.node[1].content_store 	decision_no[1] 	9325900
scalar cost_scenario_network.node[1].content_store 	decision_ratio[1] 	0
scalar cost_scenario_network.node[1].content_store 	cache_value[1] 	6.9531681618995e-310
scalar cost_scenario_network.node[1].content_store 	average_price_of_cache[1] 	-nan
scalar cost_scenario_network.node[2].core_layer 	interests[2] 	9687075
scalar cost_scenario_network.node[2].core_layer 	repo_load[2] 	9687075
scalar cost_scenario_network.node[2].core_layer 	data[2] 	0
scalar cost_scenario_network.node[2].content_store 	p_hit[2] 	0
scalar cost_scenario_network.node[2].content_store 	hits[2] 	0
scalar cost_scenario_network.node[2].content_store 	misses[2] 	9687075
scalar cost_scenario_network.node[2].content_store 	decision_yes[2] 	0
scalar cost_scenario_network.node[2].content_store 	decision_no[2] 	9687075
scalar cost_scenario_network.node[2].content_store 	decision_ratio[2] 	0
scalar cost_scenario_network.node[2].content_store 	cache_value[2] 	6.9531681618995e-310
scalar cost_scenario_network.node[2].content_store 	average_price_of_cache[2] 	-nan
scalar cost_scenario_network.node[3].core_layer 	interests[3] 	9257746
scalar cost_scenario_network.node[3].core_layer 	repo_load[3] 	9257746
scalar cost_scenario_network.node[3].core_layer 	data[3] 	0
scalar cost_scenario_network.node[3].content_store 	p_hit[3] 	0
scalar cost_scenario_network.node[3].content_store 	hits[3] 	0
scalar cost_scenario_network.node[3].content_store 	misses[3] 	9257746
scalar cost_scenario_network.node[3].content_store 	decision_yes[3] 	0
scalar cost_scenario_network.node[3].content_store 	decision_no[3] 	9257746
scalar cost_scenario_network.node[3].content_store 	decision_ratio[3] 	0
scalar cost_scenario_network.node[3].content_store 	cache_value[3] 	6.9531681618995e-310
scalar cost_scenario_network.node[3].content_store 	average_price_of_cache[3] 	-nan
scalar cost_scenario_network.client[0] 	hdistance[0] 	0.31411326226484
scalar cost_scenario_network.client[0] 	downloads[0] 	180003358
scalar cost_scenario_network.client[0] 	avg_time[0] 	0
scalar cost_scenario_network.client[0] 	interests_sent[0] 	180003358
