version 2
run General-29-20150404-08:26:12-28695
attr D fix0.01
attr F nrr
attr R lru
attr a 1.2
attr configname General
attr csize 1e3
attr ctlg 1e5
attr datetime 20150404-08:26:12
attr experiment General
attr inifile omnetpp.ini
attr iterationvars "$rep=14, $net=cost_scenario, $lambda=100, $a=1.2, $ctlg=1e5, $F=nrr, $ttl=10, $D=fix0.01, $R=lru, $csize=1e3, $window=60, $variance=0.05, $mytime=1800000, $kappa=1, $priceratiovalue=10, $splits=0.333_0.333_0.334, $pricebits=0"
attr iterationvars2 "$rep=14, $net=cost_scenario, $lambda=100, $a=1.2, $ctlg=1e5, $F=nrr, $ttl=10, $D=fix0.01, $R=lru, $csize=1e3, $window=60, $variance=0.05, $mytime=1800000, $kappa=1, $priceratiovalue=10, $splits=0.333_0.333_0.334, $pricebits=0, $repetition=0"
attr kappa 1
attr lambda 100
attr measurement "$rep=14, $net=cost_scenario, $lambda=100, $a=1.2, $ctlg=1e5, $F=nrr, $ttl=10, $D=fix0.01, $R=lru, $csize=1e3, $window=60, $variance=0.05, $mytime=1800000, $kappa=1, $priceratiovalue=10, $splits=0.333_0.333_0.334, $pricebits=0"
attr mytime 1800000
attr net cost_scenario
attr network networks.${net=cost_scenario}_network
attr pricebits 0
attr priceratiovalue 10
attr processid 28695
attr rep 14
attr repetition 0
attr replication #0
attr resultdir results
attr runnumber 29
attr seedset 14
attr splits 0.333_0.333_0.334
attr ttl 10
attr variance 0.05
attr window 60

scalar . 	a 	1.2
scalar . 	csize 	1e3
scalar . 	ctlg 	1e5
scalar . 	kappa 	1
scalar . 	lambda 	100
scalar . 	mytime 	1800000
scalar . 	pricebits 	0
scalar . 	priceratiovalue 	10
scalar . 	rep 	14
scalar . 	ttl 	10
scalar . 	variance 	0.05
scalar . 	window 	60
scalar cost_scenario_network.content_distribution 	repo-0 	1
scalar cost_scenario_network.content_distribution 	repo-1 	2
scalar cost_scenario_network.content_distribution 	repo-2 	3
scalar cost_scenario_network.content_distribution 	client-0 	0
scalar cost_scenario_network.content_distribution 	repo-0_card 	32965
scalar cost_scenario_network.content_distribution 	repo-0_price 	10
scalar cost_scenario_network.content_distribution 	repo-1_card 	33555
scalar cost_scenario_network.content_distribution 	repo-1_price 	0
scalar cost_scenario_network.content_distribution 	repo-2_card 	33480
scalar cost_scenario_network.content_distribution 	repo-2_price 	1
scalar cost_scenario_network.statistics 	repo_popularity[0] 	0.35402405482212
scalar cost_scenario_network.statistics 	repo_popularity[1] 	0.45390025570338
scalar cost_scenario_network.statistics 	repo_popularity[2] 	0.19207568947449
scalar cost_scenario_network.statistics 	stabilization_time 	3934.7
scalar cost_scenario_network.statistics 	p_hit 	0.72843997811051
scalar cost_scenario_network.statistics 	interests 	52073854.25
scalar cost_scenario_network.statistics 	data 	7070588.5
scalar cost_scenario_network.statistics 	hdistance 	0.31422557372969
scalar cost_scenario_network.statistics 	avg_time 	0
scalar cost_scenario_network.statistics 	downloads 	180013063
scalar cost_scenario_network.statistics 	total_cost 	102569908
scalar cost_scenario_network.statistics 	total_replicas 	100000
scalar cost_scenario_network.statistics 	inner_hit 	0.84288721313519
scalar cost_scenario_network.statistics 	interests_sent 	180013063
scalar cost_scenario_network.node[0].core_layer 	interests[0] 	180013063
scalar cost_scenario_network.node[0].core_layer 	data[0] 	28282354
scalar cost_scenario_network.node[0].core_layer 	repo_int[0] 	28282354
scalar cost_scenario_network.node[0].content_store 	p_hit[0] 	0.84288721313519
scalar cost_scenario_network.node[0].content_store 	hits[0] 	151730709
scalar cost_scenario_network.node[0].content_store 	misses[0] 	28282354
scalar cost_scenario_network.node[0].content_store 	decision_yes[0] 	282775
scalar cost_scenario_network.node[0].content_store 	decision_no[0] 	27999579
scalar cost_scenario_network.node[0].content_store 	decision_ratio[0] 	0.0099982837355052
scalar cost_scenario_network.node[0].content_store 	cache_value[0] 	16.09762514712
scalar cost_scenario_network.node[0].content_store 	average_price_of_cache[0] 	3.723
scalar cost_scenario_network.node[1].core_layer 	interests[1] 	9292804
scalar cost_scenario_network.node[1].core_layer 	repo_load[1] 	9292804
scalar cost_scenario_network.node[1].core_layer 	data[1] 	0
scalar cost_scenario_network.node[1].content_store 	p_hit[1] 	0
scalar cost_scenario_network.node[1].content_store 	hits[1] 	0
scalar cost_scenario_network.node[1].content_store 	misses[1] 	9292804
scalar cost_scenario_network.node[1].content_store 	decision_yes[1] 	0
scalar cost_scenario_network.node[1].content_store 	decision_no[1] 	9292804
scalar cost_scenario_network.node[1].content_store 	decision_ratio[1] 	0
scalar cost_scenario_network.node[1].content_store 	cache_value[1] 	2.1070476886069e-316
scalar cost_scenario_network.node[1].content_store 	average_price_of_cache[1] 	-nan
scalar cost_scenario_network.node[2].core_layer 	interests[2] 	9347682
scalar cost_scenario_network.node[2].core_layer 	repo_load[2] 	9347682
scalar cost_scenario_network.node[2].core_layer 	data[2] 	0
scalar cost_scenario_network.node[2].content_store 	p_hit[2] 	0
scalar cost_scenario_network.node[2].content_store 	hits[2] 	0
scalar cost_scenario_network.node[2].content_store 	misses[2] 	9347682
scalar cost_scenario_network.node[2].content_store 	decision_yes[2] 	0
scalar cost_scenario_network.node[2].content_store 	decision_no[2] 	9347682
scalar cost_scenario_network.node[2].content_store 	decision_ratio[2] 	0
scalar cost_scenario_network.node[2].content_store 	cache_value[2] 	2.1072065801186e-316
scalar cost_scenario_network.node[2].content_store 	average_price_of_cache[2] 	-nan
scalar cost_scenario_network.node[3].core_layer 	interests[3] 	9641868
scalar cost_scenario_network.node[3].core_layer 	repo_load[3] 	9641868
scalar cost_scenario_network.node[3].core_layer 	data[3] 	0
scalar cost_scenario_network.node[3].content_store 	p_hit[3] 	0
scalar cost_scenario_network.node[3].content_store 	hits[3] 	0
scalar cost_scenario_network.node[3].content_store 	misses[3] 	9641868
scalar cost_scenario_network.node[3].content_store 	decision_yes[3] 	0
scalar cost_scenario_network.node[3].content_store 	decision_no[3] 	9641868
scalar cost_scenario_network.node[3].content_store 	decision_ratio[3] 	0
scalar cost_scenario_network.node[3].content_store 	cache_value[3] 	2.1073654716303e-316
scalar cost_scenario_network.node[3].content_store 	average_price_of_cache[3] 	-nan
scalar cost_scenario_network.client[0] 	hdistance[0] 	0.31422557372969
scalar cost_scenario_network.client[0] 	downloads[0] 	180013063
scalar cost_scenario_network.client[0] 	avg_time[0] 	0
scalar cost_scenario_network.client[0] 	interests_sent[0] 	180013063
