version 2
run General-1-20150720-14:16:20-13308
attr C 1e3
attr D lce
attr F spr
attr R always_highq
attr a 1
attr brates 0.3_0.7_1.5_2.5_3.5
attr configname General
attr ctlg 1e5
attr datetime 20150720-14:16:20
attr experiment General
attr inifile omnetpp.ini
attr iterationvars "$net=abilene_nodelay, $rep=0, $lambda=100, $a=1, $ctlg=1e5, $brates=0.3_0.7_1.5_2.5_3.5, $F=spr, $ttl=1000, $D=lce, $R=always_highq, $C=1e3, $window=60, $variance=0.05, $mytime=1800"
attr iterationvars2 "$net=abilene_nodelay, $rep=0, $lambda=100, $a=1, $ctlg=1e5, $brates=0.3_0.7_1.5_2.5_3.5, $F=spr, $ttl=1000, $D=lce, $R=always_highq, $C=1e3, $window=60, $variance=0.05, $mytime=1800, $repetition=0"
attr lambda 100
attr measurement "$net=abilene_nodelay, $rep=0, $lambda=100, $a=1, $ctlg=1e5, $brates=0.3_0.7_1.5_2.5_3.5, $F=spr, $ttl=1000, $D=lce, $R=always_highq, $C=1e3, $window=60, $variance=0.05, $mytime=1800"
attr mytime 1800
attr net abilene_nodelay
attr network networks.${net=abilene_nodelay}_network
attr processid 13308
attr rep 0
attr repetition 0
attr replication #0
attr resultdir results
attr runnumber 1
attr seedset 0
attr ttl 1000
attr variance 0.05
attr window 60

scalar . 	C 	1e3
scalar . 	a 	1
scalar . 	ctlg 	1e5
scalar . 	lambda 	100
scalar . 	mytime 	1800
scalar . 	rep 	0
scalar . 	ttl 	1000
scalar . 	variance 	0.05
scalar . 	window 	60
scalar abilene_nodelay_network.content_distribution 	repo-0 	5
scalar abilene_nodelay_network.content_distribution 	repo-1 	8
scalar abilene_nodelay_network.content_distribution 	repo-2 	9
scalar abilene_nodelay_network.content_distribution 	repo-3 	0
scalar abilene_nodelay_network.content_distribution 	repo-4 	1
scalar abilene_nodelay_network.content_distribution 	repo-5 	7
scalar abilene_nodelay_network.content_distribution 	repo-6 	6
scalar abilene_nodelay_network.content_distribution 	repo-7 	2
scalar abilene_nodelay_network.content_distribution 	repo-8 	4
scalar abilene_nodelay_network.content_distribution 	repo-9 	10
scalar abilene_nodelay_network.content_distribution 	repo-10 	3
scalar abilene_nodelay_network.content_distribution 	client-0 	10
scalar abilene_nodelay_network.content_distribution 	client-1 	9
scalar abilene_nodelay_network.content_distribution 	client-2 	8
scalar abilene_nodelay_network.content_distribution 	client-3 	7
scalar abilene_nodelay_network.content_distribution 	client-4 	3
scalar abilene_nodelay_network.content_distribution 	client-5 	6
scalar abilene_nodelay_network.content_distribution 	client-6 	5
scalar abilene_nodelay_network.content_distribution 	client-7 	1
scalar abilene_nodelay_network.content_distribution 	client-8 	4
scalar abilene_nodelay_network.content_distribution 	client-9 	0
scalar abilene_nodelay_network.content_distribution 	client-10 	2
scalar abilene_nodelay_network.content_distribution 	repo-0_card 	9071
scalar abilene_nodelay_network.content_distribution 	repo-0_price 	0
scalar abilene_nodelay_network.content_distribution 	repo-1_card 	8986
scalar abilene_nodelay_network.content_distribution 	repo-1_price 	0
scalar abilene_nodelay_network.content_distribution 	repo-2_card 	9050
scalar abilene_nodelay_network.content_distribution 	repo-2_price 	0
scalar abilene_nodelay_network.content_distribution 	repo-3_card 	8986
scalar abilene_nodelay_network.content_distribution 	repo-3_price 	0
scalar abilene_nodelay_network.content_distribution 	repo-4_card 	9064
scalar abilene_nodelay_network.content_distribution 	repo-4_price 	0
scalar abilene_nodelay_network.content_distribution 	repo-5_card 	9170
scalar abilene_nodelay_network.content_distribution 	repo-5_price 	0
scalar abilene_nodelay_network.content_distribution 	repo-6_card 	9151
scalar abilene_nodelay_network.content_distribution 	repo-6_price 	0
scalar abilene_nodelay_network.content_distribution 	repo-7_card 	9112
scalar abilene_nodelay_network.content_distribution 	repo-7_price 	0
scalar abilene_nodelay_network.content_distribution 	repo-8_card 	9132
scalar abilene_nodelay_network.content_distribution 	repo-8_price 	0
scalar abilene_nodelay_network.content_distribution 	repo-9_card 	9101
scalar abilene_nodelay_network.content_distribution 	repo-9_price 	0
scalar abilene_nodelay_network.content_distribution 	repo-10_card 	9177
scalar abilene_nodelay_network.content_distribution 	repo-10_price 	0
scalar abilene_nodelay_network.statistics 	stabilization_time 	79.4
scalar abilene_nodelay_network.statistics 	p_hit 	0.10595421926313
scalar abilene_nodelay_network.statistics 	interests 	825150.54545455
scalar abilene_nodelay_network.statistics 	data 	374870.09090909
scalar abilene_nodelay_network.statistics 	hdistance 	1.6105402392158
scalar abilene_nodelay_network.statistics 	avg_time 	0
scalar abilene_nodelay_network.statistics 	downloads 	1981370
scalar abilene_nodelay_network.statistics 	total_cost 	0
scalar abilene_nodelay_network.statistics 	total_replicas 	100000
scalar abilene_nodelay_network.statistics 	"representations_downloaded 0.514624:0:0:0:0.485376:" 	0
scalar abilene_nodelay_network.statistics 	"slots_per_representation 100:233:500:833:1167:" 	0
scalar abilene_nodelay_network.statistics 	inner_hit 	2167.2223315181
scalar abilene_nodelay_network.statistics 	execution_time 	90
scalar abilene_nodelay_network.node[0].core_layer 	interests[0] 	484773
scalar abilene_nodelay_network.node[0].core_layer 	repo_load[0] 	243564
scalar abilene_nodelay_network.node[0].core_layer 	data[0] 	159832
scalar abilene_nodelay_network.node[0].core_layer 	slots_sent[face$o[1]->client[0]] 	119249639
scalar abilene_nodelay_network.node[0].core_layer 	slots_sent[face$o[2]->node[1]] 	71589301
scalar abilene_nodelay_network.node[0].core_layer 	slots_sent[face$o[3]->node[10]] 	20475987
scalar abilene_nodelay_network.node[0].content_store 	p_hit[0] 	0.16786619716857
scalar abilene_nodelay_network.node[0].content_store 	hits[0] 	81377
scalar abilene_nodelay_network.node[0].content_store 	misses[0] 	403396
scalar abilene_nodelay_network.node[0].content_store 	decision_yes[0] 	86636
scalar abilene_nodelay_network.node[0].content_store 	decision_no[0] 	316760
scalar abilene_nodelay_network.node[0].content_store 	decision_ratio[0] 	0.21476663130026
scalar abilene_nodelay_network.node[0].proactive_component 	hdistance[0].proactive_component 	2.3291999975888
scalar abilene_nodelay_network.node[0].proactive_component 	downloads[0].proactive_component 	165887
scalar abilene_nodelay_network.node[0].proactive_component 	avg_time[0].proactive_component 	0
scalar abilene_nodelay_network.node[1].core_layer 	interests[1] 	1006002
scalar abilene_nodelay_network.node[1].core_layer 	repo_load[1] 	268859
scalar abilene_nodelay_network.node[1].core_layer 	data[1] 	493503
scalar abilene_nodelay_network.node[1].core_layer 	slots_sent[face$o[1]->client[1]] 	104693167
scalar abilene_nodelay_network.node[1].core_layer 	slots_sent[face$o[2]->node[0]] 	86416947
scalar abilene_nodelay_network.node[1].core_layer 	slots_sent[face$o[3]->node[10]] 	66340471
scalar abilene_nodelay_network.node[1].core_layer 	slots_sent[face$o[4]->node[2]] 	175171807
scalar abilene_nodelay_network.node[1].content_store 	p_hit[1] 	0.087133027568534
scalar abilene_nodelay_network.node[1].content_store 	hits[1] 	87656
scalar abilene_nodelay_network.node[1].content_store 	misses[1] 	918346
scalar abilene_nodelay_network.node[1].content_store 	decision_yes[1] 	257788
scalar abilene_nodelay_network.node[1].content_store 	decision_no[1] 	504574
scalar abilene_nodelay_network.node[1].content_store 	decision_ratio[1] 	0.33814382143916
scalar abilene_nodelay_network.node[1].proactive_component 	hdistance[1].proactive_component 	2.3680716950883
scalar abilene_nodelay_network.node[1].proactive_component 	downloads[1].proactive_component 	346802
scalar abilene_nodelay_network.node[1].proactive_component 	avg_time[1].proactive_component 	0
scalar abilene_nodelay_network.node[2].core_layer 	interests[2] 	1403001
scalar abilene_nodelay_network.node[2].core_layer 	repo_load[2] 	304396
scalar abilene_nodelay_network.node[2].core_layer 	data[2] 	733362
scalar abilene_nodelay_network.node[2].core_layer 	slots_sent[face$o[1]->client[2]] 	101760368
scalar abilene_nodelay_network.node[2].core_layer 	slots_sent[face$o[2]->node[1]] 	191443713
scalar abilene_nodelay_network.node[2].core_layer 	slots_sent[face$o[3]->node[3]] 	227046046
scalar abilene_nodelay_network.node[2].core_layer 	slots_sent[face$o[4]->node[8]] 	90386064
scalar abilene_nodelay_network.node[2].content_store 	p_hit[2] 	0.067086908704983
scalar abilene_nodelay_network.node[2].content_store 	hits[2] 	94123
scalar abilene_nodelay_network.node[2].content_store 	misses[2] 	1308878
scalar abilene_nodelay_network.node[2].content_store 	decision_yes[2] 	382505
scalar abilene_nodelay_network.node[2].content_store 	decision_no[2] 	655253
scalar abilene_nodelay_network.node[2].content_store 	decision_ratio[2] 	0.36858785959732
scalar abilene_nodelay_network.node[2].proactive_component 	hdistance[2].proactive_component 	2.3356701322938
scalar abilene_nodelay_network.node[2].proactive_component 	downloads[2].proactive_component 	480144
scalar abilene_nodelay_network.node[2].proactive_component 	avg_time[2].proactive_component 	0
scalar abilene_nodelay_network.node[3].core_layer 	interests[3] 	1294627
scalar abilene_nodelay_network.node[3].core_layer 	repo_load[3] 	270062
scalar abilene_nodelay_network.node[3].core_layer 	data[3] 	678972
scalar abilene_nodelay_network.node[3].core_layer 	slots_sent[face$o[1]->client[3]] 	110095951
scalar abilene_nodelay_network.node[3].core_layer 	slots_sent[face$o[2]->node[2]] 	225024300
scalar abilene_nodelay_network.node[3].core_layer 	slots_sent[face$o[3]->node[4]] 	139539271
scalar abilene_nodelay_network.node[3].core_layer 	slots_sent[face$o[4]->node[7]] 	101008851
scalar abilene_nodelay_network.node[3].content_store 	p_hit[3] 	0.078142198486514
scalar abilene_nodelay_network.node[3].content_store 	hits[3] 	101165
scalar abilene_nodelay_network.node[3].content_store 	misses[3] 	1193462
scalar abilene_nodelay_network.node[3].content_store 	decision_yes[3] 	354921
scalar abilene_nodelay_network.node[3].content_store 	decision_no[3] 	594113
scalar abilene_nodelay_network.node[3].content_store 	decision_ratio[3] 	0.37398133259715
scalar abilene_nodelay_network.node[3].proactive_component 	hdistance[3].proactive_component 	2.3803347069828
scalar abilene_nodelay_network.node[3].proactive_component 	downloads[3].proactive_component 	437278
scalar abilene_nodelay_network.node[3].proactive_component 	avg_time[3].proactive_component 	0
scalar abilene_nodelay_network.node[4].core_layer 	interests[4] 	715881
scalar abilene_nodelay_network.node[4].core_layer 	repo_load[4] 	246818
scalar abilene_nodelay_network.node[4].core_layer 	data[4] 	309816
scalar abilene_nodelay_network.node[4].core_layer 	slots_sent[face$o[1]->client[4]] 	115102374
scalar abilene_nodelay_network.node[4].core_layer 	slots_sent[face$o[2]->node[3]] 	125673940
scalar abilene_nodelay_network.node[4].core_layer 	slots_sent[face$o[3]->node[5]] 	75236175
scalar abilene_nodelay_network.node[4].content_store 	p_hit[4] 	0.12441872322355
scalar abilene_nodelay_network.node[4].content_store 	hits[4] 	89069
scalar abilene_nodelay_network.node[4].content_store 	misses[4] 	626812
scalar abilene_nodelay_network.node[4].content_store 	decision_yes[4] 	163952
scalar abilene_nodelay_network.node[4].content_store 	decision_no[4] 	392682
scalar abilene_nodelay_network.node[4].content_store 	decision_ratio[4] 	0.29454183538914
scalar abilene_nodelay_network.node[4].proactive_component 	hdistance[4].proactive_component 	2.384508278098
scalar abilene_nodelay_network.node[4].proactive_component 	downloads[4].proactive_component 	242749
scalar abilene_nodelay_network.node[4].proactive_component 	avg_time[4].proactive_component 	0
scalar abilene_nodelay_network.node[5].core_layer 	interests[5] 	547801
scalar abilene_nodelay_network.node[5].core_layer 	repo_load[5] 	273785
scalar abilene_nodelay_network.node[5].core_layer 	data[5] 	189959
scalar abilene_nodelay_network.node[5].core_layer 	slots_sent[face$o[1]->client[5]] 	102887314
scalar abilene_nodelay_network.node[5].core_layer 	slots_sent[face$o[2]->node[4]] 	66379113
scalar abilene_nodelay_network.node[5].core_layer 	slots_sent[face$o[3]->node[6]] 	48863660
scalar abilene_nodelay_network.node[5].content_store 	p_hit[5] 	0.1256186096776
scalar abilene_nodelay_network.node[5].content_store 	hits[5] 	68814
scalar abilene_nodelay_network.node[5].content_store 	misses[5] 	478987
scalar abilene_nodelay_network.node[5].content_store 	decision_yes[5] 	102002
scalar abilene_nodelay_network.node[5].content_store 	decision_no[5] 	361742
scalar abilene_nodelay_network.node[5].content_store 	decision_ratio[5] 	0.219953250069
scalar abilene_nodelay_network.node[5].proactive_component 	hdistance[5].proactive_component 	2.1941680002033
scalar abilene_nodelay_network.node[5].proactive_component 	downloads[5].proactive_component 	196845
scalar abilene_nodelay_network.node[5].proactive_component 	avg_time[5].proactive_component 	0
scalar abilene_nodelay_network.node[6].core_layer 	interests[6] 	621703
scalar abilene_nodelay_network.node[6].core_layer 	repo_load[6] 	243447
scalar abilene_nodelay_network.node[6].core_layer 	data[6] 	250552
scalar abilene_nodelay_network.node[6].core_layer 	slots_sent[face$o[1]->client[6]] 	116253030
scalar abilene_nodelay_network.node[6].core_layer 	slots_sent[face$o[2]->node[5]] 	52595859
scalar abilene_nodelay_network.node[6].core_layer 	slots_sent[face$o[3]->node[7]] 	103422252
scalar abilene_nodelay_network.node[6].content_store 	p_hit[6] 	0.13653947302812
scalar abilene_nodelay_network.node[6].content_store 	hits[6] 	84887
scalar abilene_nodelay_network.node[6].content_store 	misses[6] 	536816
scalar abilene_nodelay_network.node[6].content_store 	decision_yes[6] 	133269
scalar abilene_nodelay_network.node[6].content_store 	decision_no[6] 	360730
scalar abilene_nodelay_network.node[6].content_store 	decision_ratio[6] 	0.26977584974868
scalar abilene_nodelay_network.node[6].proactive_component 	hdistance[6].proactive_component 	2.2648173226192
scalar abilene_nodelay_network.node[6].proactive_component 	downloads[6].proactive_component 	211931
scalar abilene_nodelay_network.node[6].proactive_component 	avg_time[6].proactive_component 	0
scalar abilene_nodelay_network.node[7].core_layer 	interests[7] 	919869
scalar abilene_nodelay_network.node[7].core_layer 	repo_load[7] 	266971
scalar abilene_nodelay_network.node[7].core_layer 	data[7] 	430127
scalar abilene_nodelay_network.node[7].core_layer 	slots_sent[face$o[1]->client[7]] 	115808234
scalar abilene_nodelay_network.node[7].core_layer 	slots_sent[face$o[2]->node[3]] 	93877921
scalar abilene_nodelay_network.node[7].core_layer 	slots_sent[face$o[3]->node[6]] 	118389563
scalar abilene_nodelay_network.node[7].core_layer 	slots_sent[face$o[4]->node[8]] 	83548693
scalar abilene_nodelay_network.node[7].content_store 	p_hit[7] 	0.10506169900279
scalar abilene_nodelay_network.node[7].content_store 	hits[7] 	96643
scalar abilene_nodelay_network.node[7].content_store 	misses[7] 	823226
scalar abilene_nodelay_network.node[7].content_store 	decision_yes[7] 	226818
scalar abilene_nodelay_network.node[7].content_store 	decision_no[7] 	470280
scalar abilene_nodelay_network.node[7].content_store 	decision_ratio[7] 	0.32537462451477
scalar abilene_nodelay_network.node[7].proactive_component 	hdistance[7].proactive_component 	2.2351348294637
scalar abilene_nodelay_network.node[7].proactive_component 	downloads[7].proactive_component 	309465
scalar abilene_nodelay_network.node[7].proactive_component 	avg_time[7].proactive_component 	0
scalar abilene_nodelay_network.node[8].core_layer 	interests[8] 	860518
scalar abilene_nodelay_network.node[8].core_layer 	repo_load[8] 	246026
scalar abilene_nodelay_network.node[8].core_layer 	data[8] 	404949
scalar abilene_nodelay_network.node[8].core_layer 	slots_sent[face$o[1]->client[8]] 	115406388
scalar abilene_nodelay_network.node[8].core_layer 	slots_sent[face$o[2]->node[2]] 	81272928
scalar abilene_nodelay_network.node[8].core_layer 	slots_sent[face$o[3]->node[7]] 	80596403
scalar abilene_nodelay_network.node[8].core_layer 	slots_sent[face$o[4]->node[9]] 	107083041
scalar abilene_nodelay_network.node[8].content_store 	p_hit[8] 	0.11154792810842
scalar abilene_nodelay_network.node[8].content_store 	hits[8] 	95989
scalar abilene_nodelay_network.node[8].content_store 	misses[8] 	764529
scalar abilene_nodelay_network.node[8].content_store 	decision_yes[8] 	213042
scalar abilene_nodelay_network.node[8].content_store 	decision_no[8] 	437933
scalar abilene_nodelay_network.node[8].content_store 	decision_ratio[8] 	0.32726602404086
scalar abilene_nodelay_network.node[8].proactive_component 	hdistance[8].proactive_component 	2.1760586206897
scalar abilene_nodelay_network.node[8].proactive_component 	downloads[8].proactive_component 	290000
scalar abilene_nodelay_network.node[8].proactive_component 	avg_time[8].proactive_component 	0
scalar abilene_nodelay_network.node[9].core_layer 	interests[9] 	622834
scalar abilene_nodelay_network.node[9].core_layer 	repo_load[9] 	249051
scalar abilene_nodelay_network.node[9].core_layer 	data[9] 	249321
scalar abilene_nodelay_network.node[9].core_layer 	slots_sent[face$o[1]->client[9]] 	113057215
scalar abilene_nodelay_network.node[9].core_layer 	slots_sent[face$o[2]->node[10]] 	61680494
scalar abilene_nodelay_network.node[9].core_layer 	slots_sent[face$o[3]->node[8]] 	93875957
scalar abilene_nodelay_network.node[9].content_store 	p_hit[9] 	0.1322936769669
scalar abilene_nodelay_network.node[9].content_store 	hits[9] 	82397
scalar abilene_nodelay_network.node[9].content_store 	misses[9] 	540437
scalar abilene_nodelay_network.node[9].content_store 	decision_yes[9] 	132327
scalar abilene_nodelay_network.node[9].content_store 	decision_no[9] 	366045
scalar abilene_nodelay_network.node[9].content_store 	decision_ratio[9] 	0.26551852832824
scalar abilene_nodelay_network.node[9].proactive_component 	hdistance[9].proactive_component 	2.1605376439367
scalar abilene_nodelay_network.node[9].proactive_component 	downloads[9].proactive_component 	214417
scalar abilene_nodelay_network.node[9].proactive_component 	avg_time[9].proactive_component 	0
scalar abilene_nodelay_network.node[10].core_layer 	interests[10] 	599647
scalar abilene_nodelay_network.node[10].core_layer 	repo_load[10] 	266376
scalar abilene_nodelay_network.node[10].core_layer 	data[10] 	223178
scalar abilene_nodelay_network.node[10].core_layer 	slots_sent[face$o[1]->client[10]] 	109967890
scalar abilene_nodelay_network.node[10].core_layer 	slots_sent[face$o[2]->node[0]] 	22006865
scalar abilene_nodelay_network.node[10].core_layer 	slots_sent[face$o[3]->node[1]] 	61377082
scalar abilene_nodelay_network.node[10].core_layer 	slots_sent[face$o[4]->node[9]] 	59041968
scalar abilene_nodelay_network.node[10].content_store 	p_hit[10] 	0.13272808835865
scalar abilene_nodelay_network.node[10].content_store 	hits[10] 	79590
scalar abilene_nodelay_network.node[10].content_store 	misses[10] 	520057
scalar abilene_nodelay_network.node[10].content_store 	decision_yes[10] 	118256
scalar abilene_nodelay_network.node[10].content_store 	decision_no[10] 	371298
scalar abilene_nodelay_network.node[10].content_store 	decision_ratio[10] 	0.24155864317317
scalar abilene_nodelay_network.node[10].proactive_component 	hdistance[10].proactive_component 	2.0809649655199
scalar abilene_nodelay_network.node[10].proactive_component 	downloads[10].proactive_component 	209251
scalar abilene_nodelay_network.node[10].proactive_component 	avg_time[10].proactive_component 	0
scalar abilene_nodelay_network.client[0] 	hdistance[0].real 	1.7707398824109
scalar abilene_nodelay_network.client[0] 	downloads[0].real 	180799
scalar abilene_nodelay_network.client[0] 	avg_time[0].real 	0
scalar abilene_nodelay_network.client[1] 	hdistance[1].real 	1.6368984638566
scalar abilene_nodelay_network.client[1] 	downloads[1].real 	180517
scalar abilene_nodelay_network.client[1] 	avg_time[1].real 	0
scalar abilene_nodelay_network.client[2] 	hdistance[2].real 	1.4771956925197
scalar abilene_nodelay_network.client[2] 	downloads[2].real 	179966
scalar abilene_nodelay_network.client[2] 	avg_time[2].real 	0
scalar abilene_nodelay_network.client[3] 	hdistance[3].real 	1.4721867986836
scalar abilene_nodelay_network.client[3] 	downloads[3].real 	179573
scalar abilene_nodelay_network.client[3] 	avg_time[3].real 	0
scalar abilene_nodelay_network.client[4] 	hdistance[4].real 	1.6726708523571
scalar abilene_nodelay_network.client[4] 	downloads[4].real 	179819
scalar abilene_nodelay_network.client[4] 	avg_time[4].real 	0
scalar abilene_nodelay_network.client[5] 	hdistance[5].real 	1.8492673179396
scalar abilene_nodelay_network.client[5] 	downloads[5].real 	180160
scalar abilene_nodelay_network.client[5] 	avg_time[5].real 	0
scalar abilene_nodelay_network.client[6] 	hdistance[6].real 	1.690963152337
scalar abilene_nodelay_network.client[6] 	downloads[6].real 	179930
scalar abilene_nodelay_network.client[6] 	avg_time[6].real 	0
scalar abilene_nodelay_network.client[7] 	hdistance[7].real 	1.4599947976911
scalar abilene_nodelay_network.client[7] 	downloads[7].real 	180689
scalar abilene_nodelay_network.client[7] 	avg_time[7].real 	0
scalar abilene_nodelay_network.client[8] 	hdistance[8].real 	1.4233318726182
scalar abilene_nodelay_network.client[8] 	downloads[8].real 	180277
scalar abilene_nodelay_network.client[8] 	avg_time[8].real 	0
scalar abilene_nodelay_network.client[9] 	hdistance[9].real 	1.5885225340728
scalar abilene_nodelay_network.client[9] 	downloads[9].real 	179395
scalar abilene_nodelay_network.client[9] 	avg_time[9].real 	0
scalar abilene_nodelay_network.client[10] 	hdistance[10].real 	1.6741712668867
scalar abilene_nodelay_network.client[10] 	downloads[10].real 	180245
scalar abilene_nodelay_network.client[10] 	avg_time[10].real 	0
