version 2
run General-7-20150902-21:12:22-5571
attr C 1e3
attr D fix0.001
attr F spr
attr R lru_repr
attr a 1
attr brates 0.3_0.7_1.5_2.5_3.5
attr configname General
attr ctlg 1e5
attr datetime 20150902-21:12:22
attr experiment General
attr inifile omnetpp.ini
attr iterationvars "$net=abilene_nodelay, $rep=0, $lambda=100, $a=1, $ctlg=1e5, $brates=0.3_0.7_1.5_2.5_3.5, $F=spr, $ttl=1000, $D=fix0.001, $R=lru_repr, $proactiveprob=1, $C=1e3, $window=60, $variance=0.05, $mytime=180000"
attr iterationvars2 "$net=abilene_nodelay, $rep=0, $lambda=100, $a=1, $ctlg=1e5, $brates=0.3_0.7_1.5_2.5_3.5, $F=spr, $ttl=1000, $D=fix0.001, $R=lru_repr, $proactiveprob=1, $C=1e3, $window=60, $variance=0.05, $mytime=180000, $repetition=0"
attr lambda 100
attr measurement "$net=abilene_nodelay, $rep=0, $lambda=100, $a=1, $ctlg=1e5, $brates=0.3_0.7_1.5_2.5_3.5, $F=spr, $ttl=1000, $D=fix0.001, $R=lru_repr, $proactiveprob=1, $C=1e3, $window=60, $variance=0.05, $mytime=180000"
attr mytime 180000
attr net abilene_nodelay
attr network networks.${net=abilene_nodelay}_network
attr proactiveprob 1
attr processid 5571
attr rep 0
attr repetition 0
attr replication #0
attr resultdir results
attr runnumber 7
attr seedset 0
attr ttl 1000
attr variance 0.05
attr window 60

scalar . 	C 	1e3
scalar . 	a 	1
scalar . 	ctlg 	1e5
scalar . 	lambda 	100
scalar . 	mytime 	180000
scalar . 	proactiveprob 	1
scalar . 	rep 	0
scalar . 	ttl 	1000
scalar . 	variance 	0.05
scalar . 	window 	60
scalar abilene_nodelay_network.content_distribution 	repo-0 	5
scalar abilene_nodelay_network.content_distribution 	repo-1 	8
scalar abilene_nodelay_network.content_distribution 	repo-2 	9
scalar abilene_nodelay_network.content_distribution 	repo-3 	0
scalar abilene_nodelay_network.content_distribution 	repo-4 	1
scalar abilene_nodelay_network.content_distribution 	repo-5 	7
scalar abilene_nodelay_network.content_distribution 	repo-6 	6
scalar abilene_nodelay_network.content_distribution 	repo-7 	2
scalar abilene_nodelay_network.content_distribution 	repo-8 	4
scalar abilene_nodelay_network.content_distribution 	repo-9 	10
scalar abilene_nodelay_network.content_distribution 	repo-10 	3
scalar abilene_nodelay_network.content_distribution 	client-0 	10
scalar abilene_nodelay_network.content_distribution 	client-1 	9
scalar abilene_nodelay_network.content_distribution 	client-2 	8
scalar abilene_nodelay_network.content_distribution 	client-3 	7
scalar abilene_nodelay_network.content_distribution 	client-4 	3
scalar abilene_nodelay_network.content_distribution 	client-5 	6
scalar abilene_nodelay_network.content_distribution 	client-6 	5
scalar abilene_nodelay_network.content_distribution 	client-7 	1
scalar abilene_nodelay_network.content_distribution 	client-8 	4
scalar abilene_nodelay_network.content_distribution 	client-9 	0
scalar abilene_nodelay_network.content_distribution 	client-10 	2
scalar abilene_nodelay_network.content_distribution 	repo-0_card 	9071
scalar abilene_nodelay_network.content_distribution 	repo-0_price 	0
scalar abilene_nodelay_network.content_distribution 	repo-1_card 	8986
scalar abilene_nodelay_network.content_distribution 	repo-1_price 	0
scalar abilene_nodelay_network.content_distribution 	repo-2_card 	9050
scalar abilene_nodelay_network.content_distribution 	repo-2_price 	0
scalar abilene_nodelay_network.content_distribution 	repo-3_card 	8986
scalar abilene_nodelay_network.content_distribution 	repo-3_price 	0
scalar abilene_nodelay_network.content_distribution 	repo-4_card 	9064
scalar abilene_nodelay_network.content_distribution 	repo-4_price 	0
scalar abilene_nodelay_network.content_distribution 	repo-5_card 	9170
scalar abilene_nodelay_network.content_distribution 	repo-5_price 	0
scalar abilene_nodelay_network.content_distribution 	repo-6_card 	9151
scalar abilene_nodelay_network.content_distribution 	repo-6_price 	0
scalar abilene_nodelay_network.content_distribution 	repo-7_card 	9112
scalar abilene_nodelay_network.content_distribution 	repo-7_price 	0
scalar abilene_nodelay_network.content_distribution 	repo-8_card 	9132
scalar abilene_nodelay_network.content_distribution 	repo-8_price 	0
scalar abilene_nodelay_network.content_distribution 	repo-9_card 	9101
scalar abilene_nodelay_network.content_distribution 	repo-9_price 	0
scalar abilene_nodelay_network.content_distribution 	repo-10_card 	9177
scalar abilene_nodelay_network.content_distribution 	repo-10_price 	0
scalar abilene_nodelay_network.statistics 	stabilization_time 	36060
scalar abilene_nodelay_network.statistics 	p_hit 	0.31300102009392
scalar abilene_nodelay_network.statistics 	interests 	39827437.727273
scalar abilene_nodelay_network.statistics 	data 	18215602.545455
scalar abilene_nodelay_network.statistics 	hdistance 	1.0629092732779
scalar abilene_nodelay_network.statistics 	avg_time 	0
scalar abilene_nodelay_network.statistics 	downloads 	197980075
scalar abilene_nodelay_network.statistics 	total_cost 	0
scalar abilene_nodelay_network.statistics 	total_replicas 	100000
scalar abilene_nodelay_network.statistics 	"representations_downloaded 0.427792:0.0415082:0.0302068:0.0271357:0.473358:" 	0
scalar abilene_nodelay_network.statistics 	"slots_per_representation 100:233:500:833:1167:" 	0
scalar abilene_nodelay_network.statistics 	inner_hit 	0.49184850041096
scalar abilene_nodelay_network.statistics 	execution_time 	8979
scalar abilene_nodelay_network.node[0].core_layer 	interests[0] 	26682534
scalar abilene_nodelay_network.node[0].core_layer 	repo_load[0] 	8260755
scalar abilene_nodelay_network.node[0].core_layer 	data[0] 	7916148
scalar abilene_nodelay_network.node[0].core_layer 	slots_sent[face$o[1]->client[0]] 	12209219589
scalar abilene_nodelay_network.node[0].core_layer 	slots_sent[face$o[2]->node[1]] 	1577897178
scalar abilene_nodelay_network.node[0].core_layer 	slots_sent[face$o[3]->node[10]] 	447338589
scalar abilene_nodelay_network.node[0].content_store 	p_hit[0] 	0.39372688516016
scalar abilene_nodelay_network.node[0].content_store 	hits[0] 	10505631
scalar abilene_nodelay_network.node[0].content_store 	misses[0] 	16176903
scalar abilene_nodelay_network.node[0].content_store 	decision_yes[0] 	8013
scalar abilene_nodelay_network.node[0].content_store 	decision_no[0] 	16168890
scalar abilene_nodelay_network.node[0].content_store 	decision_ratio[0] 	0.00049533585013151
scalar abilene_nodelay_network.node[0].content_store 	"representation_breakdown[0] 2624:377:192:131:524:" 	0
scalar abilene_nodelay_network.node[0].proactive_component 	hdistance[0].proactive_component 	2.4982389823606
scalar abilene_nodelay_network.node[0].proactive_component 	downloads[0].proactive_component 	2050235
scalar abilene_nodelay_network.node[0].proactive_component 	avg_time[0].proactive_component 	0
scalar abilene_nodelay_network.node[1].core_layer 	interests[1] 	46272106
scalar abilene_nodelay_network.node[1].core_layer 	repo_load[1] 	9496789
scalar abilene_nodelay_network.node[1].core_layer 	data[1] 	23775549
scalar abilene_nodelay_network.node[1].core_layer 	slots_sent[face$o[1]->client[1]] 	10944790251
scalar abilene_nodelay_network.node[1].core_layer 	slots_sent[face$o[2]->node[0]] 	1899295282
scalar abilene_nodelay_network.node[1].core_layer 	slots_sent[face$o[3]->node[10]] 	1493539586
scalar abilene_nodelay_network.node[1].core_layer 	slots_sent[face$o[4]->node[2]] 	3767746282
scalar abilene_nodelay_network.node[1].content_store 	p_hit[1] 	0.28094178380383
scalar abilene_nodelay_network.node[1].content_store 	hits[1] 	12999768
scalar abilene_nodelay_network.node[1].content_store 	misses[1] 	33272338
scalar abilene_nodelay_network.node[1].content_store 	decision_yes[1] 	23805
scalar abilene_nodelay_network.node[1].content_store 	decision_no[1] 	33248533
scalar abilene_nodelay_network.node[1].content_store 	decision_ratio[1] 	0.00071545919015369
scalar abilene_nodelay_network.node[1].content_store 	"representation_breakdown[1] 2643:514:235:195:431:" 	0
scalar abilene_nodelay_network.node[1].proactive_component 	hdistance[1].proactive_component 	2.2672570721083
scalar abilene_nodelay_network.node[1].proactive_component 	downloads[1].proactive_component 	5530211
scalar abilene_nodelay_network.node[1].proactive_component 	avg_time[1].proactive_component 	0
scalar abilene_nodelay_network.node[2].core_layer 	interests[2] 	61351645
scalar abilene_nodelay_network.node[2].core_layer 	repo_load[2] 	10784464
scalar abilene_nodelay_network.node[2].core_layer 	data[2] 	35169472
scalar abilene_nodelay_network.node[2].core_layer 	slots_sent[face$o[1]->client[2]] 	10672094157
scalar abilene_nodelay_network.node[2].core_layer 	slots_sent[face$o[2]->node[1]] 	4207115751
scalar abilene_nodelay_network.node[2].core_layer 	slots_sent[face$o[3]->node[3]] 	5031145154
scalar abilene_nodelay_network.node[2].core_layer 	slots_sent[face$o[4]->node[8]] 	2057239723
scalar abilene_nodelay_network.node[2].content_store 	p_hit[2] 	0.25097467231726
scalar abilene_nodelay_network.node[2].content_store 	hits[2] 	15397709
scalar abilene_nodelay_network.node[2].content_store 	misses[2] 	45953936
scalar abilene_nodelay_network.node[2].content_store 	decision_yes[2] 	35345
scalar abilene_nodelay_network.node[2].content_store 	decision_no[2] 	45918591
scalar abilene_nodelay_network.node[2].content_store 	decision_ratio[2] 	0.0007691397751
scalar abilene_nodelay_network.node[2].content_store 	"representation_breakdown[2] 2697:538:257:198:410:" 	0
scalar abilene_nodelay_network.node[2].proactive_component 	hdistance[2].proactive_component 	2.2841077465799
scalar abilene_nodelay_network.node[2].proactive_component 	downloads[2].proactive_component 	7953032
scalar abilene_nodelay_network.node[2].proactive_component 	avg_time[2].proactive_component 	0
scalar abilene_nodelay_network.node[3].core_layer 	interests[3] 	57620286
scalar abilene_nodelay_network.node[3].core_layer 	repo_load[3] 	9457636
scalar abilene_nodelay_network.node[3].core_layer 	data[3] 	32574836
scalar abilene_nodelay_network.node[3].core_layer 	slots_sent[face$o[1]->client[3]] 	11455941718
scalar abilene_nodelay_network.node[3].core_layer 	slots_sent[face$o[2]->node[2]] 	4889264367
scalar abilene_nodelay_network.node[3].core_layer 	slots_sent[face$o[3]->node[4]] 	3085341418
scalar abilene_nodelay_network.node[3].core_layer 	slots_sent[face$o[4]->node[7]] 	2250530208
scalar abilene_nodelay_network.node[3].content_store 	p_hit[3] 	0.27052649478345
scalar abilene_nodelay_network.node[3].content_store 	hits[3] 	15587814
scalar abilene_nodelay_network.node[3].content_store 	misses[3] 	42032472
scalar abilene_nodelay_network.node[3].content_store 	decision_yes[3] 	32519
scalar abilene_nodelay_network.node[3].content_store 	decision_no[3] 	41999953
scalar abilene_nodelay_network.node[3].content_store 	decision_ratio[3] 	0.00077366375215809
scalar abilene_nodelay_network.node[3].content_store 	"representation_breakdown[3] 2706:534:224:201:422:" 	0
scalar abilene_nodelay_network.node[3].proactive_component 	hdistance[3].proactive_component 	2.2632914078347
scalar abilene_nodelay_network.node[3].proactive_component 	downloads[3].proactive_component 	7455606
scalar abilene_nodelay_network.node[3].proactive_component 	avg_time[3].proactive_component 	0
scalar abilene_nodelay_network.node[4].core_layer 	interests[4] 	35513120
scalar abilene_nodelay_network.node[4].core_layer 	repo_load[4] 	8446389
scalar abilene_nodelay_network.node[4].core_layer 	data[4] 	15009805
scalar abilene_nodelay_network.node[4].core_layer 	slots_sent[face$o[1]->client[4]] 	12002899593
scalar abilene_nodelay_network.node[4].core_layer 	slots_sent[face$o[2]->node[3]] 	2740259746
scalar abilene_nodelay_network.node[4].core_layer 	slots_sent[face$o[3]->node[5]] 	1689797360
scalar abilene_nodelay_network.node[4].content_store 	p_hit[4] 	0.33950624445275
scalar abilene_nodelay_network.node[4].content_store 	hits[4] 	12056926
scalar abilene_nodelay_network.node[4].content_store 	misses[4] 	23456194
scalar abilene_nodelay_network.node[4].content_store 	decision_yes[4] 	14661
scalar abilene_nodelay_network.node[4].content_store 	decision_no[4] 	23441533
scalar abilene_nodelay_network.node[4].content_store 	decision_ratio[4] 	0.00062503746345208
scalar abilene_nodelay_network.node[4].content_store 	"representation_breakdown[4] 2518:468:215:169:478:" 	0
scalar abilene_nodelay_network.node[4].proactive_component 	hdistance[4].proactive_component 	2.328247186302
scalar abilene_nodelay_network.node[4].proactive_component 	downloads[4].proactive_component 	3607708
scalar abilene_nodelay_network.node[4].proactive_component 	avg_time[4].proactive_component 	0
scalar abilene_nodelay_network.node[5].core_layer 	interests[5] 	28769326
scalar abilene_nodelay_network.node[5].core_layer 	repo_load[5] 	9728692
scalar abilene_nodelay_network.node[5].core_layer 	data[5] 	9503194
scalar abilene_nodelay_network.node[5].core_layer 	slots_sent[face$o[1]->client[5]] 	10653719218
scalar abilene_nodelay_network.node[5].core_layer 	slots_sent[face$o[2]->node[4]] 	1509022744
scalar abilene_nodelay_network.node[5].core_layer 	slots_sent[face$o[3]->node[6]] 	1074346327
scalar abilene_nodelay_network.node[5].content_store 	p_hit[5] 	0.33151419675247
scalar abilene_nodelay_network.node[5].content_store 	hits[5] 	9537440
scalar abilene_nodelay_network.node[5].content_store 	misses[5] 	19231886
scalar abilene_nodelay_network.node[5].content_store 	decision_yes[5] 	9365
scalar abilene_nodelay_network.node[5].content_store 	decision_no[5] 	19222521
scalar abilene_nodelay_network.node[5].content_store 	decision_ratio[5] 	0.00048695172173962
scalar abilene_nodelay_network.node[5].content_store 	"representation_breakdown[5] 2551:420:188:133:522:" 	0
scalar abilene_nodelay_network.node[5].proactive_component 	hdistance[5].proactive_component 	2.3177117579088
scalar abilene_nodelay_network.node[5].proactive_component 	downloads[5].proactive_component 	2570270
scalar abilene_nodelay_network.node[5].proactive_component 	avg_time[5].proactive_component 	0
scalar abilene_nodelay_network.node[6].core_layer 	interests[6] 	32336000
scalar abilene_nodelay_network.node[6].core_layer 	repo_load[6] 	8457603
scalar abilene_nodelay_network.node[6].core_layer 	data[6] 	12284175
scalar abilene_nodelay_network.node[6].core_layer 	slots_sent[face$o[1]->client[6]] 	12074368461
scalar abilene_nodelay_network.node[6].core_layer 	slots_sent[face$o[2]->node[5]] 	1186485194
scalar abilene_nodelay_network.node[6].core_layer 	slots_sent[face$o[3]->node[7]] 	2344164672
scalar abilene_nodelay_network.node[6].content_store 	p_hit[6] 	0.35855461405245
scalar abilene_nodelay_network.node[6].content_store 	hits[6] 	11594222
scalar abilene_nodelay_network.node[6].content_store 	misses[6] 	20741778
scalar abilene_nodelay_network.node[6].content_store 	decision_yes[6] 	12432
scalar abilene_nodelay_network.node[6].content_store 	decision_no[6] 	20729346
scalar abilene_nodelay_network.node[6].content_store 	decision_ratio[6] 	0.00059937002507692
scalar abilene_nodelay_network.node[6].content_store 	"representation_breakdown[6] 2674:466:188:145:493:" 	0
scalar abilene_nodelay_network.node[6].proactive_component 	hdistance[6].proactive_component 	2.2734941285265
scalar abilene_nodelay_network.node[6].proactive_component 	downloads[6].proactive_component 	3157640
scalar abilene_nodelay_network.node[6].proactive_component 	avg_time[6].proactive_component 	0
scalar abilene_nodelay_network.node[7].core_layer 	interests[7] 	43804745
scalar abilene_nodelay_network.node[7].core_layer 	repo_load[7] 	9256591
scalar abilene_nodelay_network.node[7].core_layer 	data[7] 	20914748
scalar abilene_nodelay_network.node[7].core_layer 	slots_sent[face$o[1]->client[7]] 	11992022899
scalar abilene_nodelay_network.node[7].core_layer 	slots_sent[face$o[2]->node[3]] 	1992775865
scalar abilene_nodelay_network.node[7].core_layer 	slots_sent[face$o[3]->node[6]] 	2603491307
scalar abilene_nodelay_network.node[7].core_layer 	slots_sent[face$o[4]->node[8]] 	1869562416
scalar abilene_nodelay_network.node[7].content_store 	p_hit[7] 	0.31123126044907
scalar abilene_nodelay_network.node[7].content_store 	hits[7] 	13633406
scalar abilene_nodelay_network.node[7].content_store 	misses[7] 	30171339
scalar abilene_nodelay_network.node[7].content_store 	decision_yes[7] 	20914
scalar abilene_nodelay_network.node[7].content_store 	decision_no[7] 	30150425
scalar abilene_nodelay_network.node[7].content_store 	decision_ratio[7] 	0.00069317440634637
scalar abilene_nodelay_network.node[7].content_store 	"representation_breakdown[7] 2517:472:235:178:462:" 	0
scalar abilene_nodelay_network.node[7].proactive_component 	hdistance[7].proactive_component 	2.199096782621
scalar abilene_nodelay_network.node[7].proactive_component 	downloads[7].proactive_component 	5144498
scalar abilene_nodelay_network.node[7].proactive_component 	avg_time[7].proactive_component 	0
scalar abilene_nodelay_network.node[8].core_layer 	interests[8] 	41962240
scalar abilene_nodelay_network.node[8].core_layer 	repo_load[8] 	8576546
scalar abilene_nodelay_network.node[8].core_layer 	data[8] 	19844921
scalar abilene_nodelay_network.node[8].core_layer 	slots_sent[face$o[1]->client[8]] 	11996466752
scalar abilene_nodelay_network.node[8].core_layer 	slots_sent[face$o[2]->node[2]] 	1753910580
scalar abilene_nodelay_network.node[8].core_layer 	slots_sent[face$o[3]->node[7]] 	1785338510
scalar abilene_nodelay_network.node[8].core_layer 	slots_sent[face$o[4]->node[9]] 	2387786057
scalar abilene_nodelay_network.node[8].content_store 	p_hit[8] 	0.32268947034286
scalar abilene_nodelay_network.node[8].content_store 	hits[8] 	13540773
scalar abilene_nodelay_network.node[8].content_store 	misses[8] 	28421467
scalar abilene_nodelay_network.node[8].content_store 	decision_yes[8] 	19807
scalar abilene_nodelay_network.node[8].content_store 	decision_no[8] 	28401660
scalar abilene_nodelay_network.node[8].content_store 	decision_ratio[8] 	0.00069690280237822
scalar abilene_nodelay_network.node[8].content_store 	"representation_breakdown[8] 2605:515:265:170:439:" 	0
scalar abilene_nodelay_network.node[8].proactive_component 	hdistance[8].proactive_component 	2.1505116665512
scalar abilene_nodelay_network.node[8].proactive_component 	downloads[8].proactive_component 	5055050
scalar abilene_nodelay_network.node[8].proactive_component 	avg_time[8].proactive_component 	0
scalar abilene_nodelay_network.node[9].core_layer 	interests[9] 	32427653
scalar abilene_nodelay_network.node[9].core_layer 	repo_load[9] 	8755520
scalar abilene_nodelay_network.node[9].core_layer 	data[9] 	12292148
scalar abilene_nodelay_network.node[9].core_layer 	slots_sent[face$o[1]->client[9]] 	11798492289
scalar abilene_nodelay_network.node[9].core_layer 	slots_sent[face$o[2]->node[10]] 	1336377532
scalar abilene_nodelay_network.node[9].core_layer 	slots_sent[face$o[3]->node[8]] 	2133518869
scalar abilene_nodelay_network.node[9].content_store 	p_hit[9] 	0.35093458660113
scalar abilene_nodelay_network.node[9].content_store 	hits[9] 	11379985
scalar abilene_nodelay_network.node[9].content_store 	misses[9] 	21047668
scalar abilene_nodelay_network.node[9].content_store 	decision_yes[9] 	12340
scalar abilene_nodelay_network.node[9].content_store 	decision_no[9] 	21035328
scalar abilene_nodelay_network.node[9].content_store 	decision_ratio[9] 	0.00058628822917579
scalar abilene_nodelay_network.node[9].content_store 	"representation_breakdown[9] 2593:437:220:155:485:" 	0
scalar abilene_nodelay_network.node[9].proactive_component 	hdistance[9].proactive_component 	2.2501773184581
scalar abilene_nodelay_network.node[9].proactive_component 	downloads[9].proactive_component 	3285050
scalar abilene_nodelay_network.node[9].proactive_component 	avg_time[9].proactive_component 	0
scalar abilene_nodelay_network.node[10].core_layer 	interests[10] 	31362160
scalar abilene_nodelay_network.node[10].core_layer 	repo_load[10] 	9382887
scalar abilene_nodelay_network.node[10].core_layer 	data[10] 	11086632
scalar abilene_nodelay_network.node[10].core_layer 	slots_sent[face$o[1]->client[10]] 	11415331796
scalar abilene_nodelay_network.node[10].core_layer 	slots_sent[face$o[2]->node[0]] 	455606804
scalar abilene_nodelay_network.node[10].core_layer 	slots_sent[face$o[3]->node[1]] 	1365380696
scalar abilene_nodelay_network.node[10].core_layer 	slots_sent[face$o[4]->node[9]] 	1302697869
scalar abilene_nodelay_network.node[10].content_store 	p_hit[10] 	0.34731794621289
scalar abilene_nodelay_network.node[10].content_store 	hits[10] 	10892641
scalar abilene_nodelay_network.node[10].content_store 	misses[10] 	20469519
scalar abilene_nodelay_network.node[10].content_store 	decision_yes[10] 	11081
scalar abilene_nodelay_network.node[10].content_store 	decision_no[10] 	20458438
scalar abilene_nodelay_network.node[10].content_store 	decision_ratio[10] 	0.0005413414941504
scalar abilene_nodelay_network.node[10].content_store 	"representation_breakdown[10] 2728:435:207:142:489:" 	0
scalar abilene_nodelay_network.node[10].proactive_component 	hdistance[10].proactive_component 	2.2036110244316
scalar abilene_nodelay_network.node[10].proactive_component 	downloads[10].proactive_component 	3098899
scalar abilene_nodelay_network.node[10].proactive_component 	avg_time[10].proactive_component 	0
scalar abilene_nodelay_network.client[0] 	hdistance[0].real 	1.1497555184074
scalar abilene_nodelay_network.client[0] 	downloads[0].real 	17997674
scalar abilene_nodelay_network.client[0] 	avg_time[0].real 	0
scalar abilene_nodelay_network.client[1] 	hdistance[1].real 	1.0849857999629
scalar abilene_nodelay_network.client[1] 	downloads[1].real 	17997136
scalar abilene_nodelay_network.client[1] 	avg_time[1].real 	0
scalar abilene_nodelay_network.client[2] 	hdistance[2].real 	1.0018852480287
scalar abilene_nodelay_network.client[2] 	downloads[2].real 	17996571
scalar abilene_nodelay_network.client[2] 	avg_time[2].real 	0
scalar abilene_nodelay_network.client[3] 	hdistance[3].real 	0.98275250952286
scalar abilene_nodelay_network.client[3] 	downloads[3].real 	17999836
scalar abilene_nodelay_network.client[3] 	avg_time[3].real 	0
scalar abilene_nodelay_network.client[4] 	hdistance[4].real 	1.1034037606275
scalar abilene_nodelay_network.client[4] 	downloads[4].real 	18003910
scalar abilene_nodelay_network.client[4] 	avg_time[4].real 	0
scalar abilene_nodelay_network.client[5] 	hdistance[5].real 	1.2132615064565
scalar abilene_nodelay_network.client[5] 	downloads[5].real 	17998091
scalar abilene_nodelay_network.client[5] 	avg_time[5].real 	0
scalar abilene_nodelay_network.client[6] 	hdistance[6].real 	1.0978833848068
scalar abilene_nodelay_network.client[6] 	downloads[6].real 	18002800
scalar abilene_nodelay_network.client[6] 	avg_time[6].real 	0
scalar abilene_nodelay_network.client[7] 	hdistance[7].real 	0.96787923146244
scalar abilene_nodelay_network.client[7] 	downloads[7].real 	17996674
scalar abilene_nodelay_network.client[7] 	avg_time[7].real 	0
scalar abilene_nodelay_network.client[8] 	hdistance[8].real 	0.94416003654372
scalar abilene_nodelay_network.client[8] 	downloads[8].real 	17994890
scalar abilene_nodelay_network.client[8] 	avg_time[8].real 	0
scalar abilene_nodelay_network.client[9] 	hdistance[9].real 	1.0460901353665
scalar abilene_nodelay_network.client[9] 	downloads[9].real 	17998884
scalar abilene_nodelay_network.client[9] 	avg_time[9].real 	0
scalar abilene_nodelay_network.client[10] 	hdistance[10].real 	1.0999448748718
scalar abilene_nodelay_network.client[10] 	downloads[10].real 	17993609
scalar abilene_nodelay_network.client[10] 	avg_time[10].real 	0
