version 2
run General-3-20141007-10:52:57-438
attr D costaware0.005
attr F spr
attr R lru
attr a 1
attr configname General
attr csize 1e3
attr ctlg 1e5
attr datetime 20141007-10:52:57
attr experiment General
attr inifile omnetpp.ini
attr iterationvars "$net=abilene_cost, $rep=4, $priceratiovalue=10, $weights=0.333_0.333_0.334, $lambda=100, $a=1, $ctlg=1e5, $F=spr, $ttl=10, $D=costaware0.005, $xi=1, $R=lru, $csize=1e3, $pricebits=0, $window=60, $variance=0.05, $mytime=1800"
attr iterationvars2 "$net=abilene_cost, $rep=4, $priceratiovalue=10, $weights=0.333_0.333_0.334, $lambda=100, $a=1, $ctlg=1e5, $F=spr, $ttl=10, $D=costaware0.005, $xi=1, $R=lru, $csize=1e3, $pricebits=0, $window=60, $variance=0.05, $mytime=1800, $repetition=0"
attr lambda 100
attr measurement "$net=abilene_cost, $rep=4, $priceratiovalue=10, $weights=0.333_0.333_0.334, $lambda=100, $a=1, $ctlg=1e5, $F=spr, $ttl=10, $D=costaware0.005, $xi=1, $R=lru, $csize=1e3, $pricebits=0, $window=60, $variance=0.05, $mytime=1800"
attr mytime 1800
attr net abilene_cost
attr network networks.${net=abilene_cost,geant_cost}_network
attr pricebits 0
attr priceratiovalue 10
attr processid 438
attr rep 4
attr repetition 0
attr replication #0
attr resultdir results
attr runnumber 3
attr seedset 4
attr ttl 10
attr variance 0.05
attr weights 0.333_0.333_0.334
attr window 60
attr xi 1

scalar . 	a 	1
scalar . 	csize 	1e3
scalar . 	ctlg 	1e5
scalar . 	lambda 	100
scalar . 	mytime 	1800
scalar . 	pricebits 	0
scalar . 	priceratiovalue 	10
scalar . 	rep 	4
scalar . 	ttl 	10
scalar . 	variance 	0.05
scalar . 	window 	60
scalar . 	xi 	1
scalar abilene_cost_network.content_distribution 	repo-0 	2
scalar abilene_cost_network.content_distribution 	repo-1 	0
scalar abilene_cost_network.content_distribution 	repo-2 	10
scalar abilene_cost_network.content_distribution 	client-0 	6
scalar abilene_cost_network.content_distribution 	client-1 	2
scalar abilene_cost_network.content_distribution 	client-2 	4
scalar abilene_cost_network.content_distribution 	repo-0_card 	33274
scalar abilene_cost_network.content_distribution 	repo-0_price 	0
scalar abilene_cost_network.content_distribution 	repo-1_card 	33153
scalar abilene_cost_network.content_distribution 	repo-1_price 	1
scalar abilene_cost_network.content_distribution 	repo-2_card 	33573
scalar abilene_cost_network.content_distribution 	repo-2_price 	10
scalar abilene_cost_network.statistics 	repo_popularity[0] 	0.33945880017902
scalar abilene_cost_network.statistics 	repo_popularity[1] 	0.30988277584688
scalar abilene_cost_network.statistics 	repo_popularity[2] 	0.35065842397411
scalar abilene_cost_network.statistics 	stabilization_time 	36060
scalar abilene_cost_network.statistics 	p_hit 	0.11094706783444
scalar abilene_cost_network.statistics 	interests 	158987.36363636
scalar abilene_cost_network.statistics 	data 	109896.72727273
scalar abilene_cost_network.statistics 	hdistance 	2.9027757642618
scalar abilene_cost_network.statistics 	avg_time 	0.013357724898
scalar abilene_cost_network.statistics 	downloads 	535249
scalar abilene_cost_network.statistics 	total_cost 	883565
scalar abilene_cost_network.statistics 	total_replicas 	100000
scalar abilene_cost_network.statistics 	inner_hit 	0.36527111680732
scalar abilene_cost_network.node[0].core_layer 	interests[0] 	96576
scalar abilene_cost_network.node[0].core_layer 	repo_load[0] 	79255
scalar abilene_cost_network.node[0].core_layer 	data[0] 	0
scalar abilene_cost_network.node[0].core_layer 	repo_int[0] 	339738
scalar abilene_cost_network.node[0].content_store 	p_hit[0] 	0.17935097746852
scalar abilene_cost_network.node[0].content_store 	hits[0] 	17321
scalar abilene_cost_network.node[0].content_store 	misses[0] 	79255
scalar abilene_cost_network.node[0].content_store 	decision_yes[0] 	104
scalar abilene_cost_network.node[0].content_store 	decision_no[0] 	79151
scalar abilene_cost_network.node[0].content_store 	decision_ratio[0] 	0.0013122200492083
scalar abilene_cost_network.node[0].content_store 	correction_factor[0] 	0.0013612850530901
scalar abilene_cost_network.node[0].content_store 	kappa[0] 	1
scalar abilene_cost_network.node[1].core_layer 	interests[1] 	211882
scalar abilene_cost_network.node[1].core_layer 	data[1] 	171872
scalar abilene_cost_network.node[1].content_store 	p_hit[1] 	0.18883623903871
scalar abilene_cost_network.node[1].content_store 	hits[1] 	40011
scalar abilene_cost_network.node[1].content_store 	misses[1] 	171871
scalar abilene_cost_network.node[1].content_store 	decision_yes[1] 	867
scalar abilene_cost_network.node[1].content_store 	decision_no[1] 	171005
scalar abilene_cost_network.node[1].content_store 	decision_ratio[1] 	0.0050444516849749
scalar abilene_cost_network.node[1].content_store 	correction_factor[1] 	0.0013612850530901
scalar abilene_cost_network.node[1].content_store 	kappa[1] 	1
scalar abilene_cost_network.node[2].core_layer 	interests[2] 	441312
scalar abilene_cost_network.node[2].core_layer 	repo_load[2] 	180052
scalar abilene_cost_network.node[2].core_layer 	data[2] 	211883
scalar abilene_cost_network.node[2].content_store 	p_hit[2] 	0.10991316800812
scalar abilene_cost_network.node[2].content_store 	hits[2] 	48506
scalar abilene_cost_network.node[2].content_store 	misses[2] 	392806
scalar abilene_cost_network.node[2].content_store 	decision_yes[2] 	861
scalar abilene_cost_network.node[2].content_store 	decision_no[2] 	391074
scalar abilene_cost_network.node[2].content_store 	decision_ratio[2] 	0.0021967928355467
scalar abilene_cost_network.node[2].content_store 	correction_factor[2] 	0.0013612850530901
scalar abilene_cost_network.node[2].content_store 	kappa[2] 	1
scalar abilene_cost_network.node[3].core_layer 	interests[3] 	274150
scalar abilene_cost_network.node[3].core_layer 	data[3] 	261410
scalar abilene_cost_network.node[3].content_store 	p_hit[3] 	0.042013496261171
scalar abilene_cost_network.node[3].content_store 	hits[3] 	11518
scalar abilene_cost_network.node[3].content_store 	misses[3] 	262632
scalar abilene_cost_network.node[3].content_store 	decision_yes[3] 	409
scalar abilene_cost_network.node[3].content_store 	decision_no[3] 	261001
scalar abilene_cost_network.node[3].content_store 	decision_ratio[3] 	0.0015645920201982
scalar abilene_cost_network.node[3].content_store 	correction_factor[3] 	0.0013612850530901
scalar abilene_cost_network.node[3].content_store 	kappa[3] 	1
scalar abilene_cost_network.node[4].core_layer 	interests[4] 	180072
scalar abilene_cost_network.node[4].core_layer 	data[4] 	166709
scalar abilene_cost_network.node[4].content_store 	p_hit[4] 	0.06821160424719
scalar abilene_cost_network.node[4].content_store 	hits[4] 	12283
scalar abilene_cost_network.node[4].content_store 	misses[4] 	167789
scalar abilene_cost_network.node[4].content_store 	decision_yes[4] 	402
scalar abilene_cost_network.node[4].content_store 	decision_no[4] 	166307
scalar abilene_cost_network.node[4].content_store 	decision_ratio[4] 	0.0024113875075731
scalar abilene_cost_network.node[4].content_store 	correction_factor[4] 	0.0013612850530901
scalar abilene_cost_network.node[4].content_store 	kappa[4] 	1
scalar abilene_cost_network.node[5].core_layer 	interests[5] 	0
scalar abilene_cost_network.node[5].core_layer 	data[5] 	0
scalar abilene_cost_network.node[5].content_store 	p_hit[5] 	-nan
scalar abilene_cost_network.node[5].content_store 	hits[5] 	0
scalar abilene_cost_network.node[5].content_store 	misses[5] 	0
scalar abilene_cost_network.node[5].content_store 	decision_yes[5] 	0
scalar abilene_cost_network.node[5].content_store 	decision_no[5] 	0
scalar abilene_cost_network.node[5].content_store 	decision_ratio[5] 	0
scalar abilene_cost_network.node[5].content_store 	correction_factor[5] 	0.0013612850530901
scalar abilene_cost_network.node[5].content_store 	kappa[5] 	1
scalar abilene_cost_network.node[6].core_layer 	interests[6] 	180033
scalar abilene_cost_network.node[6].core_layer 	data[6] 	166058
scalar abilene_cost_network.node[6].content_store 	p_hit[6] 	0.060622219259802
scalar abilene_cost_network.node[6].content_store 	hits[6] 	10914
scalar abilene_cost_network.node[6].content_store 	misses[6] 	169119
scalar abilene_cost_network.node[6].content_store 	decision_yes[6] 	361
scalar abilene_cost_network.node[6].content_store 	decision_no[6] 	165697
scalar abilene_cost_network.node[6].content_store 	decision_ratio[6] 	0.0021739392260535
scalar abilene_cost_network.node[6].content_store 	correction_factor[6] 	0.0013612850530901
scalar abilene_cost_network.node[6].content_store 	kappa[6] 	1
scalar abilene_cost_network.node[7].core_layer 	interests[7] 	166054
scalar abilene_cost_network.node[7].core_layer 	data[7] 	156095
scalar abilene_cost_network.node[7].content_store 	p_hit[7] 	0.059992532549653
scalar abilene_cost_network.node[7].content_store 	hits[7] 	9962
scalar abilene_cost_network.node[7].content_store 	misses[7] 	156092
scalar abilene_cost_network.node[7].content_store 	decision_yes[7] 	383
scalar abilene_cost_network.node[7].content_store 	decision_no[7] 	155712
scalar abilene_cost_network.node[7].content_store 	decision_ratio[7] 	0.0024536340049329
scalar abilene_cost_network.node[7].content_store 	correction_factor[7] 	0.0013612850530901
scalar abilene_cost_network.node[7].content_store 	kappa[7] 	1
scalar abilene_cost_network.node[8].core_layer 	interests[8] 	48651
scalar abilene_cost_network.node[8].core_layer 	data[8] 	39317
scalar abilene_cost_network.node[8].content_store 	p_hit[8] 	0.19187683706399
scalar abilene_cost_network.node[8].content_store 	hits[8] 	9335
scalar abilene_cost_network.node[8].content_store 	misses[8] 	39316
scalar abilene_cost_network.node[8].content_store 	decision_yes[8] 	344
scalar abilene_cost_network.node[8].content_store 	decision_no[8] 	38973
scalar abilene_cost_network.node[8].content_store 	decision_ratio[8] 	0.0087493959356004
scalar abilene_cost_network.node[8].content_store 	correction_factor[8] 	0.0013612850530901
scalar abilene_cost_network.node[8].content_store 	kappa[8] 	1
scalar abilene_cost_network.node[9].core_layer 	interests[9] 	39316
scalar abilene_cost_network.node[9].core_layer 	data[9] 	35520
scalar abilene_cost_network.node[9].content_store 	p_hit[9] 	0.096576457421915
scalar abilene_cost_network.node[9].content_store 	hits[9] 	3797
scalar abilene_cost_network.node[9].content_store 	misses[9] 	35519
scalar abilene_cost_network.node[9].content_store 	decision_yes[9] 	351
scalar abilene_cost_network.node[9].content_store 	decision_no[9] 	35169
scalar abilene_cost_network.node[9].content_store 	decision_ratio[9] 	0.0098817567567568
scalar abilene_cost_network.node[9].content_store 	correction_factor[9] 	0.0013612850530901
scalar abilene_cost_network.node[9].content_store 	kappa[9] 	1
scalar abilene_cost_network.node[10].core_layer 	interests[10] 	110815
scalar abilene_cost_network.node[10].core_layer 	repo_load[10] 	80431
scalar abilene_cost_network.node[10].core_layer 	data[10] 	0
scalar abilene_cost_network.node[10].content_store 	p_hit[10] 	0.27418670757569
scalar abilene_cost_network.node[10].content_store 	hits[10] 	30384
scalar abilene_cost_network.node[10].content_store 	misses[10] 	80431
scalar abilene_cost_network.node[10].content_store 	decision_yes[10] 	1101
scalar abilene_cost_network.node[10].content_store 	decision_no[10] 	79330
scalar abilene_cost_network.node[10].content_store 	decision_ratio[10] 	0.013688751849411
scalar abilene_cost_network.node[10].content_store 	correction_factor[10] 	0.0013612850530901
scalar abilene_cost_network.node[10].content_store 	kappa[10] 	1
scalar abilene_cost_network.client[2] 	hdistance[2] 	1.6213347463536
scalar abilene_cost_network.client[2] 	downloads[2] 	179285
scalar abilene_cost_network.client[2] 	avg_time[2] 	0.007685140309
scalar abilene_cost_network.client[4] 	hdistance[4] 	3.2350272637883
scalar abilene_cost_network.client[4] 	downloads[4] 	178992
scalar abilene_cost_network.client[4] 	avg_time[4] 	0.012221629593
scalar abilene_cost_network.client[6] 	hdistance[6] 	3.8519652826436
scalar abilene_cost_network.client[6] 	downloads[6] 	176972
scalar abilene_cost_network.client[6] 	avg_time[6] 	0.020166404794
