version 2
run General-3-20141007-11:11:55-15308
attr D costaware0.005
attr F spr
attr R lru
attr a 1
attr configname General
attr csize 1e3
attr ctlg 1e5
attr datetime 20141007-11:11:55
attr experiment General
attr inifile omnetpp.ini
attr iterationvars "$net=abilene_cost, $rep=2, $priceratiovalue=10, $weights=0.333_0.333_0.334, $lambda=100, $a=1, $ctlg=1e5, $F=spr, $ttl=10, $D=costaware0.005, $xi=1, $R=lru, $csize=1e3, $pricebits=0, $window=60, $variance=0.05, $mytime=1800"
attr iterationvars2 "$net=abilene_cost, $rep=2, $priceratiovalue=10, $weights=0.333_0.333_0.334, $lambda=100, $a=1, $ctlg=1e5, $F=spr, $ttl=10, $D=costaware0.005, $xi=1, $R=lru, $csize=1e3, $pricebits=0, $window=60, $variance=0.05, $mytime=1800, $repetition=0"
attr lambda 100
attr measurement "$net=abilene_cost, $rep=2, $priceratiovalue=10, $weights=0.333_0.333_0.334, $lambda=100, $a=1, $ctlg=1e5, $F=spr, $ttl=10, $D=costaware0.005, $xi=1, $R=lru, $csize=1e3, $pricebits=0, $window=60, $variance=0.05, $mytime=1800"
attr mytime 1800
attr net abilene_cost
attr network networks.${net=abilene_cost,geant_cost}_network
attr pricebits 0
attr priceratiovalue 10
attr processid 15308
attr rep 2
attr repetition 0
attr replication #0
attr resultdir results
attr runnumber 3
attr seedset 2
attr ttl 10
attr variance 0.05
attr weights 0.333_0.333_0.334
attr window 60
attr xi 1

scalar . 	a 	1
scalar . 	csize 	1e3
scalar . 	ctlg 	1e5
scalar . 	lambda 	100
scalar . 	mytime 	1800
scalar . 	pricebits 	0
scalar . 	priceratiovalue 	10
scalar . 	rep 	2
scalar . 	ttl 	10
scalar . 	variance 	0.05
scalar . 	window 	60
scalar . 	xi 	1
scalar abilene_cost_network.content_distribution 	repo-0 	4
scalar abilene_cost_network.content_distribution 	repo-1 	9
scalar abilene_cost_network.content_distribution 	repo-2 	6
scalar abilene_cost_network.content_distribution 	client-0 	3
scalar abilene_cost_network.content_distribution 	client-1 	7
scalar abilene_cost_network.content_distribution 	client-2 	9
scalar abilene_cost_network.content_distribution 	repo-0_card 	33329
scalar abilene_cost_network.content_distribution 	repo-0_price 	1
scalar abilene_cost_network.content_distribution 	repo-1_card 	33052
scalar abilene_cost_network.content_distribution 	repo-1_price 	10
scalar abilene_cost_network.content_distribution 	repo-2_card 	33619
scalar abilene_cost_network.content_distribution 	repo-2_price 	0
scalar abilene_cost_network.statistics 	repo_popularity[0] 	0.33984204835506
scalar abilene_cost_network.statistics 	repo_popularity[1] 	0.39407385110283
scalar abilene_cost_network.statistics 	repo_popularity[2] 	0.26608410054213
scalar abilene_cost_network.statistics 	stabilization_time 	36060
scalar abilene_cost_network.statistics 	p_hit 	0.14459735022309
scalar abilene_cost_network.statistics 	interests 	135839.90909091
scalar abilene_cost_network.statistics 	data 	86756.636363636
scalar abilene_cost_network.statistics 	hdistance 	2.3860396323628
scalar abilene_cost_network.statistics 	avg_time 	0.012787102595
scalar abilene_cost_network.statistics 	downloads 	532581
scalar abilene_cost_network.statistics 	total_cost 	963286
scalar abilene_cost_network.statistics 	total_replicas 	100000
scalar abilene_cost_network.statistics 	inner_hit 	0.41180027075694
scalar abilene_cost_network.node[0].core_layer 	interests[0] 	0
scalar abilene_cost_network.node[0].core_layer 	data[0] 	0
scalar abilene_cost_network.node[0].core_layer 	repo_int[0] 	313264
scalar abilene_cost_network.node[0].content_store 	p_hit[0] 	-nan
scalar abilene_cost_network.node[0].content_store 	hits[0] 	0
scalar abilene_cost_network.node[0].content_store 	misses[0] 	0
scalar abilene_cost_network.node[0].content_store 	decision_yes[0] 	0
scalar abilene_cost_network.node[0].content_store 	decision_no[0] 	0
scalar abilene_cost_network.node[0].content_store 	decision_ratio[0] 	0
scalar abilene_cost_network.node[0].content_store 	correction_factor[0] 	0.0013612850530901
scalar abilene_cost_network.node[0].content_store 	kappa[0] 	1
scalar abilene_cost_network.node[1].core_layer 	interests[1] 	0
scalar abilene_cost_network.node[1].core_layer 	data[1] 	0
scalar abilene_cost_network.node[1].content_store 	p_hit[1] 	-nan
scalar abilene_cost_network.node[1].content_store 	hits[1] 	0
scalar abilene_cost_network.node[1].content_store 	misses[1] 	0
scalar abilene_cost_network.node[1].content_store 	decision_yes[1] 	0
scalar abilene_cost_network.node[1].content_store 	decision_no[1] 	0
scalar abilene_cost_network.node[1].content_store 	decision_ratio[1] 	0
scalar abilene_cost_network.node[1].content_store 	correction_factor[1] 	0.0013612850530901
scalar abilene_cost_network.node[1].content_store 	kappa[1] 	1
scalar abilene_cost_network.node[2].core_layer 	interests[2] 	126016
scalar abilene_cost_network.node[2].core_layer 	data[2] 	115749
scalar abilene_cost_network.node[2].content_store 	p_hit[2] 	0.081457910106653
scalar abilene_cost_network.node[2].content_store 	hits[2] 	10265
scalar abilene_cost_network.node[2].content_store 	misses[2] 	115751
scalar abilene_cost_network.node[2].content_store 	decision_yes[2] 	385
scalar abilene_cost_network.node[2].content_store 	decision_no[2] 	115364
scalar abilene_cost_network.node[2].content_store 	decision_ratio[2] 	0.0033261626450337
scalar abilene_cost_network.node[2].content_store 	correction_factor[2] 	0.0013612850530901
scalar abilene_cost_network.node[2].content_store 	kappa[2] 	1
scalar abilene_cost_network.node[3].core_layer 	interests[3] 	294675
scalar abilene_cost_network.node[3].core_layer 	data[3] 	266567
scalar abilene_cost_network.node[3].content_store 	p_hit[3] 	0.083519131246288
scalar abilene_cost_network.node[3].content_store 	hits[3] 	24611
scalar abilene_cost_network.node[3].content_store 	misses[3] 	270064
scalar abilene_cost_network.node[3].content_store 	decision_yes[3] 	496
scalar abilene_cost_network.node[3].content_store 	decision_no[3] 	266071
scalar abilene_cost_network.node[3].content_store 	decision_ratio[3] 	0.0018606954349188
scalar abilene_cost_network.node[3].content_store 	correction_factor[3] 	0.0013612850530901
scalar abilene_cost_network.node[3].content_store 	kappa[3] 	1
scalar abilene_cost_network.node[4].core_layer 	interests[4] 	152053
scalar abilene_cost_network.node[4].core_layer 	repo_load[4] 	82526
scalar abilene_cost_network.node[4].core_layer 	data[4] 	0
scalar abilene_cost_network.node[4].content_store 	p_hit[4] 	0.45725503607295
scalar abilene_cost_network.node[4].content_store 	hits[4] 	69527
scalar abilene_cost_network.node[4].content_store 	misses[4] 	82526
scalar abilene_cost_network.node[4].content_store 	decision_yes[4] 	104
scalar abilene_cost_network.node[4].content_store 	decision_no[4] 	82422
scalar abilene_cost_network.node[4].content_store 	decision_ratio[4] 	0.0012602089038606
scalar abilene_cost_network.node[4].content_store 	correction_factor[4] 	0.0013612850530901
scalar abilene_cost_network.node[4].content_store 	kappa[4] 	1
scalar abilene_cost_network.node[5].core_layer 	interests[5] 	0
scalar abilene_cost_network.node[5].core_layer 	data[5] 	0
scalar abilene_cost_network.node[5].content_store 	p_hit[5] 	-nan
scalar abilene_cost_network.node[5].content_store 	hits[5] 	0
scalar abilene_cost_network.node[5].content_store 	misses[5] 	0
scalar abilene_cost_network.node[5].content_store 	decision_yes[5] 	0
scalar abilene_cost_network.node[5].content_store 	decision_no[5] 	0
scalar abilene_cost_network.node[5].content_store 	decision_ratio[5] 	0
scalar abilene_cost_network.node[5].content_store 	correction_factor[5] 	0.0013612850530901
scalar abilene_cost_network.node[5].content_store 	kappa[5] 	1
scalar abilene_cost_network.node[6].core_layer 	interests[6] 	142662
scalar abilene_cost_network.node[6].core_layer 	repo_load[6] 	142662
scalar abilene_cost_network.node[6].core_layer 	data[6] 	0
scalar abilene_cost_network.node[6].content_store 	p_hit[6] 	0
scalar abilene_cost_network.node[6].content_store 	hits[6] 	0
scalar abilene_cost_network.node[6].content_store 	misses[6] 	142662
scalar abilene_cost_network.node[6].content_store 	decision_yes[6] 	0
scalar abilene_cost_network.node[6].content_store 	decision_no[6] 	142662
scalar abilene_cost_network.node[6].content_store 	decision_ratio[6] 	0
scalar abilene_cost_network.node[6].content_store 	correction_factor[6] 	0.0013612850530901
scalar abilene_cost_network.node[6].content_store 	kappa[6] 	1
scalar abilene_cost_network.node[7].core_layer 	interests[7] 	275357
scalar abilene_cost_network.node[7].core_layer 	data[7] 	264792
scalar abilene_cost_network.node[7].content_store 	p_hit[7] 	0.027073944007234
scalar abilene_cost_network.node[7].content_store 	hits[7] 	7455
scalar abilene_cost_network.node[7].content_store 	misses[7] 	267902
scalar abilene_cost_network.node[7].content_store 	decision_yes[7] 	416
scalar abilene_cost_network.node[7].content_store 	decision_no[7] 	264376
scalar abilene_cost_network.node[7].content_store 	decision_ratio[7] 	0.0015710444424303
scalar abilene_cost_network.node[7].content_store 	correction_factor[7] 	0.0013612850530901
scalar abilene_cost_network.node[7].content_store 	kappa[7] 	1
scalar abilene_cost_network.node[8].core_layer 	interests[8] 	230458
scalar abilene_cost_network.node[8].core_layer 	data[8] 	199764
scalar abilene_cost_network.node[8].content_store 	p_hit[8] 	0.12170981263397
scalar abilene_cost_network.node[8].content_store 	hits[8] 	28049
scalar abilene_cost_network.node[8].content_store 	misses[8] 	202409
scalar abilene_cost_network.node[8].content_store 	decision_yes[8] 	779
scalar abilene_cost_network.node[8].content_store 	decision_no[8] 	198985
scalar abilene_cost_network.node[8].content_store 	decision_ratio[8] 	0.0038996015298052
scalar abilene_cost_network.node[8].content_store 	correction_factor[8] 	0.0013612850530901
scalar abilene_cost_network.node[8].content_store 	kappa[8] 	1
scalar abilene_cost_network.node[9].core_layer 	interests[9] 	273018
scalar abilene_cost_network.node[9].core_layer 	repo_load[9] 	88076
scalar abilene_cost_network.node[9].core_layer 	data[9] 	107451
scalar abilene_cost_network.node[9].content_store 	p_hit[9] 	0.27894131522464
scalar abilene_cost_network.node[9].content_store 	hits[9] 	76156
scalar abilene_cost_network.node[9].content_store 	misses[9] 	196862
scalar abilene_cost_network.node[9].content_store 	decision_yes[9] 	1253
scalar abilene_cost_network.node[9].content_store 	decision_no[9] 	194274
scalar abilene_cost_network.node[9].content_store 	decision_ratio[9] 	0.0064083221243102
scalar abilene_cost_network.node[9].content_store 	correction_factor[9] 	0.0013612850530901
scalar abilene_cost_network.node[9].content_store 	kappa[9] 	1
scalar abilene_cost_network.node[10].core_layer 	interests[10] 	0
scalar abilene_cost_network.node[10].core_layer 	data[10] 	0
scalar abilene_cost_network.node[10].content_store 	p_hit[10] 	-nan
scalar abilene_cost_network.node[10].content_store 	hits[10] 	0
scalar abilene_cost_network.node[10].content_store 	misses[10] 	0
scalar abilene_cost_network.node[10].content_store 	decision_yes[10] 	0
scalar abilene_cost_network.node[10].content_store 	decision_no[10] 	0
scalar abilene_cost_network.node[10].content_store 	decision_ratio[10] 	0
scalar abilene_cost_network.node[10].content_store 	correction_factor[10] 	0.0013612850530901
scalar abilene_cost_network.node[10].content_store 	kappa[10] 	1
scalar abilene_cost_network.client[3] 	hdistance[3] 	2.3976063829787
scalar abilene_cost_network.client[3] 	downloads[3] 	176720
scalar abilene_cost_network.client[3] 	avg_time[3] 	0.011423016402
scalar abilene_cost_network.client[7] 	hdistance[7] 	2.1030896453757
scalar abilene_cost_network.client[7] 	downloads[7] 	177399
scalar abilene_cost_network.client[7] 	avg_time[7] 	0.010254674846
scalar abilene_cost_network.client[9] 	hdistance[9] 	2.657422868734
scalar abilene_cost_network.client[9] 	downloads[9] 	178462
scalar abilene_cost_network.client[9] 	avg_time[9] 	0.016683616538
