version 2
run General-3-20141007-10:51:26-14853
attr D costaware0.005
attr F spr
attr R lru
attr a 1
attr configname General
attr csize 1e3
attr ctlg 1e5
attr datetime 20141007-10:51:26
attr experiment General
attr inifile omnetpp.ini
attr iterationvars "$net=abilene_cost, $rep=5, $priceratiovalue=10, $weights=0.333_0.333_0.334, $lambda=100, $a=1, $ctlg=1e5, $F=spr, $ttl=10, $D=costaware0.005, $xi=1, $R=lru, $csize=1e3, $pricebits=0, $window=60, $variance=0.05, $mytime=1800"
attr iterationvars2 "$net=abilene_cost, $rep=5, $priceratiovalue=10, $weights=0.333_0.333_0.334, $lambda=100, $a=1, $ctlg=1e5, $F=spr, $ttl=10, $D=costaware0.005, $xi=1, $R=lru, $csize=1e3, $pricebits=0, $window=60, $variance=0.05, $mytime=1800, $repetition=0"
attr lambda 100
attr measurement "$net=abilene_cost, $rep=5, $priceratiovalue=10, $weights=0.333_0.333_0.334, $lambda=100, $a=1, $ctlg=1e5, $F=spr, $ttl=10, $D=costaware0.005, $xi=1, $R=lru, $csize=1e3, $pricebits=0, $window=60, $variance=0.05, $mytime=1800"
attr mytime 1800
attr net abilene_cost
attr network networks.${net=abilene_cost,geant_cost}_network
attr pricebits 0
attr priceratiovalue 10
attr processid 14853
attr rep 5
attr repetition 0
attr replication #0
attr resultdir results
attr runnumber 3
attr seedset 5
attr ttl 10
attr variance 0.05
attr weights 0.333_0.333_0.334
attr window 60
attr xi 1

scalar . 	a 	1
scalar . 	csize 	1e3
scalar . 	ctlg 	1e5
scalar . 	lambda 	100
scalar . 	mytime 	1800
scalar . 	pricebits 	0
scalar . 	priceratiovalue 	10
scalar . 	rep 	5
scalar . 	ttl 	10
scalar . 	variance 	0.05
scalar . 	window 	60
scalar . 	xi 	1
scalar abilene_cost_network.content_distribution 	repo-0 	9
scalar abilene_cost_network.content_distribution 	repo-1 	5
scalar abilene_cost_network.content_distribution 	repo-2 	1
scalar abilene_cost_network.content_distribution 	client-0 	4
scalar abilene_cost_network.content_distribution 	client-1 	9
scalar abilene_cost_network.content_distribution 	client-2 	0
scalar abilene_cost_network.content_distribution 	repo-0_card 	33098
scalar abilene_cost_network.content_distribution 	repo-0_price 	1
scalar abilene_cost_network.content_distribution 	repo-1_card 	33495
scalar abilene_cost_network.content_distribution 	repo-1_price 	10
scalar abilene_cost_network.content_distribution 	repo-2_card 	33407
scalar abilene_cost_network.content_distribution 	repo-2_price 	0
scalar abilene_cost_network.statistics 	repo_popularity[0] 	0.31037770261398
scalar abilene_cost_network.statistics 	repo_popularity[1] 	0.29913869324176
scalar abilene_cost_network.statistics 	repo_popularity[2] 	0.39048360414427
scalar abilene_cost_network.statistics 	stabilization_time 	4761.9
scalar abilene_cost_network.statistics 	p_hit 	0.095930974155265
scalar abilene_cost_network.statistics 	interests 	147886.63636364
scalar abilene_cost_network.statistics 	data 	98787.909090909
scalar abilene_cost_network.statistics 	hdistance 	2.7427724430604
scalar abilene_cost_network.statistics 	avg_time 	0.013261382916
scalar abilene_cost_network.statistics 	downloads 	533951
scalar abilene_cost_network.statistics 	total_cost 	893285
scalar abilene_cost_network.statistics 	total_replicas 	100000
scalar abilene_cost_network.statistics 	inner_hit 	0.29234517774103
scalar abilene_cost_network.node[0].core_layer 	interests[0] 	180496
scalar abilene_cost_network.node[0].core_layer 	data[0] 	169737
scalar abilene_cost_network.node[0].core_layer 	repo_int[0] 	377853
scalar abilene_cost_network.node[0].content_store 	p_hit[0] 	0.046278033862246
scalar abilene_cost_network.node[0].content_store 	hits[0] 	8353
scalar abilene_cost_network.node[0].content_store 	misses[0] 	172143
scalar abilene_cost_network.node[0].content_store 	decision_yes[0] 	354
scalar abilene_cost_network.node[0].content_store 	decision_no[0] 	169383
scalar abilene_cost_network.node[0].content_store 	decision_ratio[0] 	0.0020855794552749
scalar abilene_cost_network.node[0].content_store 	correction_factor[0] 	0.0013612850530901
scalar abilene_cost_network.node[0].content_store 	kappa[0] 	1
scalar abilene_cost_network.node[1].core_layer 	interests[1] 	256765
scalar abilene_cost_network.node[1].core_layer 	repo_load[1] 	205981
scalar abilene_cost_network.node[1].core_layer 	data[1] 	46537
scalar abilene_cost_network.node[1].content_store 	p_hit[1] 	0.016540416334002
scalar abilene_cost_network.node[1].content_store 	hits[1] 	4247
scalar abilene_cost_network.node[1].content_store 	misses[1] 	252518
scalar abilene_cost_network.node[1].content_store 	decision_yes[1] 	322
scalar abilene_cost_network.node[1].content_store 	decision_no[1] 	252196
scalar abilene_cost_network.node[1].content_store 	decision_ratio[1] 	0.0012751566224982
scalar abilene_cost_network.node[1].content_store 	correction_factor[1] 	0.0013612850530901
scalar abilene_cost_network.node[1].content_store 	kappa[1] 	1
scalar abilene_cost_network.node[2].core_layer 	interests[2] 	160100
scalar abilene_cost_network.node[2].core_layer 	data[2] 	155151
scalar abilene_cost_network.node[2].content_store 	p_hit[2] 	0.030905683947533
scalar abilene_cost_network.node[2].content_store 	hits[2] 	4948
scalar abilene_cost_network.node[2].content_store 	misses[2] 	155152
scalar abilene_cost_network.node[2].content_store 	decision_yes[2] 	408
scalar abilene_cost_network.node[2].content_store 	decision_no[2] 	154743
scalar abilene_cost_network.node[2].content_store 	decision_ratio[2] 	0.0026296962314133
scalar abilene_cost_network.node[2].content_store 	correction_factor[2] 	0.0013612850530901
scalar abilene_cost_network.node[2].content_store 	kappa[2] 	1
scalar abilene_cost_network.node[3].core_layer 	interests[3] 	165659
scalar abilene_cost_network.node[3].core_layer 	data[3] 	147696
scalar abilene_cost_network.node[3].content_store 	p_hit[3] 	0.10842755298535
scalar abilene_cost_network.node[3].content_store 	hits[3] 	17962
scalar abilene_cost_network.node[3].content_store 	misses[3] 	147697
scalar abilene_cost_network.node[3].content_store 	decision_yes[3] 	390
scalar abilene_cost_network.node[3].content_store 	decision_no[3] 	147306
scalar abilene_cost_network.node[3].content_store 	decision_ratio[3] 	0.0026405589860253
scalar abilene_cost_network.node[3].content_store 	correction_factor[3] 	0.0013612850530901
scalar abilene_cost_network.node[3].content_store 	kappa[3] 	1
scalar abilene_cost_network.node[4].core_layer 	interests[4] 	213981
scalar abilene_cost_network.node[4].core_layer 	data[4] 	191165
scalar abilene_cost_network.node[4].content_store 	p_hit[4] 	0.097807749286152
scalar abilene_cost_network.node[4].content_store 	hits[4] 	20929
scalar abilene_cost_network.node[4].content_store 	misses[4] 	193052
scalar abilene_cost_network.node[4].content_store 	decision_yes[4] 	764
scalar abilene_cost_network.node[4].content_store 	decision_no[4] 	190401
scalar abilene_cost_network.node[4].content_store 	decision_ratio[4] 	0.0039965474851568
scalar abilene_cost_network.node[4].content_store 	correction_factor[4] 	0.0013612850530901
scalar abilene_cost_network.node[4].content_store 	kappa[4] 	1
scalar abilene_cost_network.node[5].core_layer 	interests[5] 	103365
scalar abilene_cost_network.node[5].core_layer 	repo_load[5] 	80157
scalar abilene_cost_network.node[5].core_layer 	data[5] 	0
scalar abilene_cost_network.node[5].content_store 	p_hit[5] 	0.22452474241765
scalar abilene_cost_network.node[5].content_store 	hits[5] 	23208
scalar abilene_cost_network.node[5].content_store 	misses[5] 	80157
scalar abilene_cost_network.node[5].content_store 	decision_yes[5] 	1076
scalar abilene_cost_network.node[5].content_store 	decision_no[5] 	79081
scalar abilene_cost_network.node[5].content_store 	decision_ratio[5] 	0.013423656074953
scalar abilene_cost_network.node[5].content_store 	correction_factor[5] 	0.0013612850530901
scalar abilene_cost_network.node[5].content_store 	kappa[5] 	1
scalar abilene_cost_network.node[6].core_layer 	interests[6] 	36588
scalar abilene_cost_network.node[6].core_layer 	data[6] 	33622
scalar abilene_cost_network.node[6].content_store 	p_hit[6] 	0.081064829998907
scalar abilene_cost_network.node[6].content_store 	hits[6] 	2966
scalar abilene_cost_network.node[6].content_store 	misses[6] 	33622
scalar abilene_cost_network.node[6].content_store 	decision_yes[6] 	361
scalar abilene_cost_network.node[6].content_store 	decision_no[6] 	33261
scalar abilene_cost_network.node[6].content_store 	decision_ratio[6] 	0.010737017429064
scalar abilene_cost_network.node[6].content_store 	correction_factor[6] 	0.0013612850530901
scalar abilene_cost_network.node[6].content_store 	kappa[6] 	1
scalar abilene_cost_network.node[7].core_layer 	interests[7] 	39864
scalar abilene_cost_network.node[7].core_layer 	data[7] 	36588
scalar abilene_cost_network.node[7].content_store 	p_hit[7] 	0.08217940999398
scalar abilene_cost_network.node[7].content_store 	hits[7] 	3276
scalar abilene_cost_network.node[7].content_store 	misses[7] 	36588
scalar abilene_cost_network.node[7].content_store 	decision_yes[7] 	338
scalar abilene_cost_network.node[7].content_store 	decision_no[7] 	36250
scalar abilene_cost_network.node[7].content_store 	decision_ratio[7] 	0.0092380015305565
scalar abilene_cost_network.node[7].content_store 	correction_factor[7] 	0.0013612850530901
scalar abilene_cost_network.node[7].content_store 	kappa[7] 	1
scalar abilene_cost_network.node[8].core_layer 	interests[8] 	85208
scalar abilene_cost_network.node[8].core_layer 	data[8] 	79007
scalar abilene_cost_network.node[8].content_store 	p_hit[8] 	0.072763120833725
scalar abilene_cost_network.node[8].content_store 	hits[8] 	6200
scalar abilene_cost_network.node[8].content_store 	misses[8] 	79008
scalar abilene_cost_network.node[8].content_store 	decision_yes[8] 	360
scalar abilene_cost_network.node[8].content_store 	decision_no[8] 	78647
scalar abilene_cost_network.node[8].content_store 	decision_ratio[8] 	0.0045565582796461
scalar abilene_cost_network.node[8].content_store 	correction_factor[8] 	0.0013612850530901
scalar abilene_cost_network.node[8].content_store 	kappa[8] 	1
scalar abilene_cost_network.node[9].core_layer 	interests[9] 	266401
scalar abilene_cost_network.node[9].core_layer 	repo_load[9] 	91715
scalar abilene_cost_network.node[9].core_layer 	data[9] 	111212
scalar abilene_cost_network.node[9].content_store 	p_hit[9] 	0.23120408707175
scalar abilene_cost_network.node[9].content_store 	hits[9] 	61593
scalar abilene_cost_network.node[9].content_store 	misses[9] 	204808
scalar abilene_cost_network.node[9].content_store 	decision_yes[9] 	466
scalar abilene_cost_network.node[9].content_store 	decision_no[9] 	202461
scalar abilene_cost_network.node[9].content_store 	decision_ratio[9] 	0.0022963922987084
scalar abilene_cost_network.node[9].content_store 	correction_factor[9] 	0.0013612850530901
scalar abilene_cost_network.node[9].content_store 	kappa[9] 	1
scalar abilene_cost_network.node[10].core_layer 	interests[10] 	118326
scalar abilene_cost_network.node[10].core_layer 	data[10] 	115952
scalar abilene_cost_network.node[10].content_store 	p_hit[10] 	0.020063215185166
scalar abilene_cost_network.node[10].content_store 	hits[10] 	2374
scalar abilene_cost_network.node[10].content_store 	misses[10] 	115952
scalar abilene_cost_network.node[10].content_store 	decision_yes[10] 	43
scalar abilene_cost_network.node[10].content_store 	decision_no[10] 	115909
scalar abilene_cost_network.node[10].content_store 	decision_ratio[10] 	0.00037084310749276
scalar abilene_cost_network.node[10].content_store 	correction_factor[10] 	0.0013612850530901
scalar abilene_cost_network.node[10].content_store 	kappa[10] 	1
scalar abilene_cost_network.client[0] 	hdistance[0] 	2.7871918692795
scalar abilene_cost_network.client[0] 	downloads[0] 	178090
scalar abilene_cost_network.client[0] 	avg_time[0] 	0.014715758653
scalar abilene_cost_network.client[4] 	hdistance[4] 	3.0969708205526
scalar abilene_cost_network.client[4] 	downloads[4] 	178002
scalar abilene_cost_network.client[4] 	avg_time[4] 	0.013118753817
scalar abilene_cost_network.client[9] 	hdistance[9] 	2.3441546393492
scalar abilene_cost_network.client[9] 	downloads[9] 	177859
scalar abilene_cost_network.client[9] 	avg_time[9] 	0.01194963628
