version 2
run General-7-20150720-18:59:42-13277
attr C 1e4
attr D lce
attr F spr
attr R always_highq
attr a 1
attr brates 0.3_0.7_1.5_2.5_3.5
attr configname General
attr ctlg 1e6
attr datetime 20150720-18:59:42
attr experiment General
attr inifile omnetpp.ini
attr iterationvars "$net=abilene_nodelay, $rep=3, $lambda=100, $a=1, $ctlg=1e6, $brates=0.3_0.7_1.5_2.5_3.5, $F=spr, $ttl=1000, $D=lce, $R=always_highq, $C=1e4, $window=60, $variance=0.05, $mytime=1800"
attr iterationvars2 "$net=abilene_nodelay, $rep=3, $lambda=100, $a=1, $ctlg=1e6, $brates=0.3_0.7_1.5_2.5_3.5, $F=spr, $ttl=1000, $D=lce, $R=always_highq, $C=1e4, $window=60, $variance=0.05, $mytime=1800, $repetition=0"
attr lambda 100
attr measurement "$net=abilene_nodelay, $rep=3, $lambda=100, $a=1, $ctlg=1e6, $brates=0.3_0.7_1.5_2.5_3.5, $F=spr, $ttl=1000, $D=lce, $R=always_highq, $C=1e4, $window=60, $variance=0.05, $mytime=1800"
attr mytime 1800
attr net abilene_nodelay
attr network networks.${net=abilene_nodelay}_network
attr processid 13277
attr rep 3
attr repetition 0
attr replication #0
attr resultdir results
attr runnumber 7
attr seedset 3
attr ttl 1000
attr variance 0.05
attr window 60

scalar . 	C 	1e4
scalar . 	a 	1
scalar . 	ctlg 	1e6
scalar . 	lambda 	100
scalar . 	mytime 	1800
scalar . 	rep 	3
scalar . 	ttl 	1000
scalar . 	variance 	0.05
scalar . 	window 	60
scalar abilene_nodelay_network.content_distribution 	repo-0 	9
scalar abilene_nodelay_network.content_distribution 	repo-1 	4
scalar abilene_nodelay_network.content_distribution 	repo-2 	0
scalar abilene_nodelay_network.content_distribution 	repo-3 	1
scalar abilene_nodelay_network.content_distribution 	repo-4 	10
scalar abilene_nodelay_network.content_distribution 	repo-5 	8
scalar abilene_nodelay_network.content_distribution 	repo-6 	6
scalar abilene_nodelay_network.content_distribution 	repo-7 	3
scalar abilene_nodelay_network.content_distribution 	repo-8 	5
scalar abilene_nodelay_network.content_distribution 	repo-9 	2
scalar abilene_nodelay_network.content_distribution 	repo-10 	7
scalar abilene_nodelay_network.content_distribution 	client-0 	8
scalar abilene_nodelay_network.content_distribution 	client-1 	10
scalar abilene_nodelay_network.content_distribution 	client-2 	9
scalar abilene_nodelay_network.content_distribution 	client-3 	2
scalar abilene_nodelay_network.content_distribution 	client-4 	0
scalar abilene_nodelay_network.content_distribution 	client-5 	6
scalar abilene_nodelay_network.content_distribution 	client-6 	7
scalar abilene_nodelay_network.content_distribution 	client-7 	1
scalar abilene_nodelay_network.content_distribution 	client-8 	4
scalar abilene_nodelay_network.content_distribution 	client-9 	5
scalar abilene_nodelay_network.content_distribution 	client-10 	3
scalar abilene_nodelay_network.content_distribution 	repo-0_card 	90872
scalar abilene_nodelay_network.content_distribution 	repo-0_price 	0
scalar abilene_nodelay_network.content_distribution 	repo-1_card 	90744
scalar abilene_nodelay_network.content_distribution 	repo-1_price 	0
scalar abilene_nodelay_network.content_distribution 	repo-2_card 	90692
scalar abilene_nodelay_network.content_distribution 	repo-2_price 	0
scalar abilene_nodelay_network.content_distribution 	repo-3_card 	90815
scalar abilene_nodelay_network.content_distribution 	repo-3_price 	0
scalar abilene_nodelay_network.content_distribution 	repo-4_card 	90784
scalar abilene_nodelay_network.content_distribution 	repo-4_price 	0
scalar abilene_nodelay_network.content_distribution 	repo-5_card 	91461
scalar abilene_nodelay_network.content_distribution 	repo-5_price 	0
scalar abilene_nodelay_network.content_distribution 	repo-6_card 	90999
scalar abilene_nodelay_network.content_distribution 	repo-6_price 	0
scalar abilene_nodelay_network.content_distribution 	repo-7_card 	90956
scalar abilene_nodelay_network.content_distribution 	repo-7_price 	0
scalar abilene_nodelay_network.content_distribution 	repo-8_card 	91035
scalar abilene_nodelay_network.content_distribution 	repo-8_price 	0
scalar abilene_nodelay_network.content_distribution 	repo-9_card 	90758
scalar abilene_nodelay_network.content_distribution 	repo-9_price 	0
scalar abilene_nodelay_network.content_distribution 	repo-10_card 	90884
scalar abilene_nodelay_network.content_distribution 	repo-10_price 	0
scalar abilene_nodelay_network.statistics 	stabilization_time 	290.5
scalar abilene_nodelay_network.statistics 	p_hit 	0.1374829373868
scalar abilene_nodelay_network.statistics 	interests 	722805.72727273
scalar abilene_nodelay_network.statistics 	data 	313910.27272727
scalar abilene_nodelay_network.statistics 	hdistance 	1.366709167899
scalar abilene_nodelay_network.statistics 	avg_time 	0
scalar abilene_nodelay_network.statistics 	downloads 	1978181
scalar abilene_nodelay_network.statistics 	total_cost 	0
scalar abilene_nodelay_network.statistics 	total_replicas 	1000000
scalar abilene_nodelay_network.statistics 	"representations_downloaded 0.447418:0:0:0:0.552582:" 	0
scalar abilene_nodelay_network.statistics 	"slots_per_representation 100:233:500:833:1167:" 	0
scalar abilene_nodelay_network.statistics 	inner_hit 	2170.9189017587
scalar abilene_nodelay_network.statistics 	execution_time 	165
scalar abilene_nodelay_network.node[0].core_layer 	interests[0] 	443767
scalar abilene_nodelay_network.node[0].core_layer 	repo_load[0] 	221338
scalar abilene_nodelay_network.node[0].core_layer 	data[0] 	133022
scalar abilene_nodelay_network.node[0].core_layer 	slots_sent[face$o[1]->client[0]] 	125380585
scalar abilene_nodelay_network.node[0].core_layer 	slots_sent[face$o[2]->node[1]] 	60590474
scalar abilene_nodelay_network.node[0].core_layer 	slots_sent[face$o[3]->node[10]] 	17451658
scalar abilene_nodelay_network.node[0].content_store 	p_hit[0] 	0.20147284498397
scalar abilene_nodelay_network.node[0].content_store 	hits[0] 	89407
scalar abilene_nodelay_network.node[0].content_store 	misses[0] 	354360
scalar abilene_nodelay_network.node[0].content_store 	decision_yes[0] 	72135
scalar abilene_nodelay_network.node[0].content_store 	decision_no[0] 	282225
scalar abilene_nodelay_network.node[0].content_store 	decision_ratio[0] 	0.20356417202845
scalar abilene_nodelay_network.node[0].proactive_component 	hdistance[0].proactive_component 	2.2435220889631
scalar abilene_nodelay_network.node[0].proactive_component 	downloads[0].proactive_component 	164675
scalar abilene_nodelay_network.node[0].proactive_component 	avg_time[0].proactive_component 	0
scalar abilene_nodelay_network.node[1].core_layer 	interests[1] 	876659
scalar abilene_nodelay_network.node[1].core_layer 	repo_load[1] 	231936
scalar abilene_nodelay_network.node[1].core_layer 	data[1] 	412139
scalar abilene_nodelay_network.node[1].core_layer 	slots_sent[face$o[1]->client[1]] 	122149394
scalar abilene_nodelay_network.node[1].core_layer 	slots_sent[face$o[2]->node[0]] 	72398006
scalar abilene_nodelay_network.node[1].core_layer 	slots_sent[face$o[3]->node[10]] 	55098095
scalar abilene_nodelay_network.node[1].core_layer 	slots_sent[face$o[4]->node[2]] 	149175640
scalar abilene_nodelay_network.node[1].content_store 	p_hit[1] 	0.11655273030905
scalar abilene_nodelay_network.node[1].content_store 	hits[1] 	102177
scalar abilene_nodelay_network.node[1].content_store 	misses[1] 	774482
scalar abilene_nodelay_network.node[1].content_store 	decision_yes[1] 	215526
scalar abilene_nodelay_network.node[1].content_store 	decision_no[1] 	428549
scalar abilene_nodelay_network.node[1].content_store 	decision_ratio[1] 	0.33462873112603
scalar abilene_nodelay_network.node[1].proactive_component 	hdistance[1].proactive_component 	2.3535773685001
scalar abilene_nodelay_network.node[1].proactive_component 	downloads[1].proactive_component 	326483
scalar abilene_nodelay_network.node[1].proactive_component 	avg_time[1].proactive_component 	0
scalar abilene_nodelay_network.node[2].core_layer 	interests[2] 	1203768
scalar abilene_nodelay_network.node[2].core_layer 	repo_load[2] 	240863
scalar abilene_nodelay_network.node[2].core_layer 	data[2] 	621272
scalar abilene_nodelay_network.node[2].core_layer 	slots_sent[face$o[1]->client[2]] 	121393342
scalar abilene_nodelay_network.node[2].core_layer 	slots_sent[face$o[2]->node[1]] 	159572751
scalar abilene_nodelay_network.node[2].core_layer 	slots_sent[face$o[3]->node[3]] 	192483236
scalar abilene_nodelay_network.node[2].core_layer 	slots_sent[face$o[4]->node[8]] 	76498891
scalar abilene_nodelay_network.node[2].content_store 	p_hit[2] 	0.092885838467213
scalar abilene_nodelay_network.node[2].content_store 	hits[2] 	111813
scalar abilene_nodelay_network.node[2].content_store 	misses[2] 	1091955
scalar abilene_nodelay_network.node[2].content_store 	decision_yes[2] 	324036
scalar abilene_nodelay_network.node[2].content_store 	decision_no[2] 	538099
scalar abilene_nodelay_network.node[2].content_store 	decision_ratio[2] 	0.37585296966252
scalar abilene_nodelay_network.node[2].proactive_component 	hdistance[2].proactive_component 	2.3468126094963
scalar abilene_nodelay_network.node[2].proactive_component 	downloads[2].proactive_component 	446933
scalar abilene_nodelay_network.node[2].proactive_component 	avg_time[2].proactive_component 	0
scalar abilene_nodelay_network.node[3].core_layer 	interests[3] 	1117688
scalar abilene_nodelay_network.node[3].core_layer 	repo_load[3] 	230099
scalar abilene_nodelay_network.node[3].core_layer 	data[3] 	569204
scalar abilene_nodelay_network.node[3].core_layer 	slots_sent[face$o[1]->client[3]] 	125716781
scalar abilene_nodelay_network.node[3].core_layer 	slots_sent[face$o[2]->node[2]] 	187348538
scalar abilene_nodelay_network.node[3].core_layer 	slots_sent[face$o[3]->node[4]] 	118188661
scalar abilene_nodelay_network.node[3].core_layer 	slots_sent[face$o[4]->node[7]] 	85585044
scalar abilene_nodelay_network.node[3].content_store 	p_hit[3] 	0.10171443193449
scalar abilene_nodelay_network.node[3].content_store 	hits[3] 	113685
scalar abilene_nodelay_network.node[3].content_store 	misses[3] 	1004003
scalar abilene_nodelay_network.node[3].content_store 	decision_yes[3] 	297423
scalar abilene_nodelay_network.node[3].content_store 	decision_no[3] 	501880
scalar abilene_nodelay_network.node[3].content_store 	decision_ratio[3] 	0.37210294469056
scalar abilene_nodelay_network.node[3].proactive_component 	hdistance[3].proactive_component 	2.3751890339667
scalar abilene_nodelay_network.node[3].proactive_component 	downloads[3].proactive_component 	411963
scalar abilene_nodelay_network.node[3].proactive_component 	avg_time[3].proactive_component 	0
scalar abilene_nodelay_network.node[4].core_layer 	interests[4] 	633232
scalar abilene_nodelay_network.node[4].core_layer 	repo_load[4] 	221924
scalar abilene_nodelay_network.node[4].core_layer 	data[4] 	256838
scalar abilene_nodelay_network.node[4].core_layer 	slots_sent[face$o[1]->client[4]] 	124680165
scalar abilene_nodelay_network.node[4].core_layer 	slots_sent[face$o[2]->node[3]] 	103911530
scalar abilene_nodelay_network.node[4].core_layer 	slots_sent[face$o[3]->node[5]] 	63190163
scalar abilene_nodelay_network.node[4].content_store 	p_hit[4] 	0.15346192232863
scalar abilene_nodelay_network.node[4].content_store 	hits[4] 	97177
scalar abilene_nodelay_network.node[4].content_store 	misses[4] 	536055
scalar abilene_nodelay_network.node[4].content_store 	decision_yes[4] 	136108
scalar abilene_nodelay_network.node[4].content_store 	decision_no[4] 	342654
scalar abilene_nodelay_network.node[4].content_store 	decision_ratio[4] 	0.28429156867086
scalar abilene_nodelay_network.node[4].proactive_component 	hdistance[4].proactive_component 	2.3448880150453
scalar abilene_nodelay_network.node[4].proactive_component 	downloads[4].proactive_component 	233960
scalar abilene_nodelay_network.node[4].proactive_component 	avg_time[4].proactive_component 	0
scalar abilene_nodelay_network.node[5].core_layer 	interests[5] 	465298
scalar abilene_nodelay_network.node[5].core_layer 	repo_load[5] 	195199
scalar abilene_nodelay_network.node[5].core_layer 	data[5] 	159310
scalar abilene_nodelay_network.node[5].core_layer 	slots_sent[face$o[1]->client[5]] 	132620753
scalar abilene_nodelay_network.node[5].core_layer 	slots_sent[face$o[2]->node[4]] 	52722375
scalar abilene_nodelay_network.node[5].core_layer 	slots_sent[face$o[3]->node[6]] 	39508996
scalar abilene_nodelay_network.node[5].content_store 	p_hit[5] 	0.21065209822522
scalar abilene_nodelay_network.node[5].content_store 	hits[5] 	98016
scalar abilene_nodelay_network.node[5].content_store 	misses[5] 	367282
scalar abilene_nodelay_network.node[5].content_store 	decision_yes[5] 	85757
scalar abilene_nodelay_network.node[5].content_store 	decision_no[5] 	268752
scalar abilene_nodelay_network.node[5].content_store 	decision_ratio[5] 	0.24190359059996
scalar abilene_nodelay_network.node[5].proactive_component 	hdistance[5].proactive_component 	2.3277409285993
scalar abilene_nodelay_network.node[5].proactive_component 	downloads[5].proactive_component 	166595
scalar abilene_nodelay_network.node[5].proactive_component 	avg_time[5].proactive_component 	0
scalar abilene_nodelay_network.node[6].core_layer 	interests[6] 	544732
scalar abilene_nodelay_network.node[6].core_layer 	repo_load[6] 	201959
scalar abilene_nodelay_network.node[6].core_layer 	data[6] 	209030
scalar abilene_nodelay_network.node[6].core_layer 	slots_sent[face$o[1]->client[6]] 	130148204
scalar abilene_nodelay_network.node[6].core_layer 	slots_sent[face$o[2]->node[5]] 	44243556
scalar abilene_nodelay_network.node[6].core_layer 	slots_sent[face$o[3]->node[7]] 	83594700
scalar abilene_nodelay_network.node[6].content_store 	p_hit[6] 	0.18111475000551
scalar abilene_nodelay_network.node[6].content_store 	hits[6] 	98659
scalar abilene_nodelay_network.node[6].content_store 	misses[6] 	446073
scalar abilene_nodelay_network.node[6].content_store 	decision_yes[6] 	111350
scalar abilene_nodelay_network.node[6].content_store 	decision_no[6] 	299639
scalar abilene_nodelay_network.node[6].content_store 	decision_ratio[6] 	0.27093182542598
scalar abilene_nodelay_network.node[6].proactive_component 	hdistance[6].proactive_component 	2.2770370669874
scalar abilene_nodelay_network.node[6].proactive_component 	downloads[6].proactive_component 	197858
scalar abilene_nodelay_network.node[6].proactive_component 	avg_time[6].proactive_component 	0
scalar abilene_nodelay_network.node[7].core_layer 	interests[7] 	801318
scalar abilene_nodelay_network.node[7].core_layer 	repo_load[7] 	230957
scalar abilene_nodelay_network.node[7].core_layer 	data[7] 	360182
scalar abilene_nodelay_network.node[7].core_layer 	slots_sent[face$o[1]->client[7]] 	125917169
scalar abilene_nodelay_network.node[7].core_layer 	slots_sent[face$o[2]->node[3]] 	77875975
scalar abilene_nodelay_network.node[7].core_layer 	slots_sent[face$o[3]->node[6]] 	100204454
scalar abilene_nodelay_network.node[7].core_layer 	slots_sent[face$o[4]->node[8]] 	67716772
scalar abilene_nodelay_network.node[7].content_store 	p_hit[7] 	0.1311277170861
scalar abilene_nodelay_network.node[7].content_store 	hits[7] 	105075
scalar abilene_nodelay_network.node[7].content_store 	misses[7] 	696243
scalar abilene_nodelay_network.node[7].content_store 	decision_yes[7] 	189533
scalar abilene_nodelay_network.node[7].content_store 	decision_no[7] 	401606
scalar abilene_nodelay_network.node[7].content_store 	decision_ratio[7] 	0.32062340667762
scalar abilene_nodelay_network.node[7].proactive_component 	hdistance[7].proactive_component 	2.217904346087
scalar abilene_nodelay_network.node[7].proactive_component 	downloads[7].proactive_component 	295001
scalar abilene_nodelay_network.node[7].proactive_component 	avg_time[7].proactive_component 	0
scalar abilene_nodelay_network.node[8].core_layer 	interests[8] 	765413
scalar abilene_nodelay_network.node[8].core_layer 	repo_load[8] 	231127
scalar abilene_nodelay_network.node[8].core_layer 	data[8] 	336086
scalar abilene_nodelay_network.node[8].core_layer 	slots_sent[face$o[1]->client[8]] 	124909180
scalar abilene_nodelay_network.node[8].core_layer 	slots_sent[face$o[2]->node[2]] 	71349434
scalar abilene_nodelay_network.node[8].core_layer 	slots_sent[face$o[3]->node[7]] 	69070167
scalar abilene_nodelay_network.node[8].core_layer 	slots_sent[face$o[4]->node[9]] 	89386852
scalar abilene_nodelay_network.node[8].content_store 	p_hit[8] 	0.13589134232107
scalar abilene_nodelay_network.node[8].content_store 	hits[8] 	104013
scalar abilene_nodelay_network.node[8].content_store 	misses[8] 	661400
scalar abilene_nodelay_network.node[8].content_store 	decision_yes[8] 	176803
scalar abilene_nodelay_network.node[8].content_store 	decision_no[8] 	390410
scalar abilene_nodelay_network.node[8].content_store 	decision_ratio[8] 	0.31170477404432
scalar abilene_nodelay_network.node[8].proactive_component 	hdistance[8].proactive_component 	2.1251500621559
scalar abilene_nodelay_network.node[8].proactive_component 	downloads[8].proactive_component 	281550
scalar abilene_nodelay_network.node[8].proactive_component 	avg_time[8].proactive_component 	0
scalar abilene_nodelay_network.node[9].core_layer 	interests[9] 	568552
scalar abilene_nodelay_network.node[9].core_layer 	repo_load[9] 	245904
scalar abilene_nodelay_network.node[9].core_layer 	data[9] 	209091
scalar abilene_nodelay_network.node[9].core_layer 	slots_sent[face$o[1]->client[9]] 	107142444
scalar abilene_nodelay_network.node[9].core_layer 	slots_sent[face$o[2]->node[10]] 	51646576
scalar abilene_nodelay_network.node[9].core_layer 	slots_sent[face$o[3]->node[8]] 	78041738
scalar abilene_nodelay_network.node[9].content_store 	p_hit[9] 	0.13788888263519
scalar abilene_nodelay_network.node[9].content_store 	hits[9] 	78397
scalar abilene_nodelay_network.node[9].content_store 	misses[9] 	490155
scalar abilene_nodelay_network.node[9].content_store 	decision_yes[9] 	110859
scalar abilene_nodelay_network.node[9].content_store 	decision_no[9] 	344136
scalar abilene_nodelay_network.node[9].content_store 	decision_ratio[9] 	0.24364883130584
scalar abilene_nodelay_network.node[9].proactive_component 	hdistance[9].proactive_component 	2.0433739577227
scalar abilene_nodelay_network.node[9].proactive_component 	downloads[9].proactive_component 	223429
scalar abilene_nodelay_network.node[9].proactive_component 	avg_time[9].proactive_component 	0
scalar abilene_nodelay_network.node[10].core_layer 	interests[10] 	530436
scalar abilene_nodelay_network.node[10].core_layer 	repo_load[10] 	223647
scalar abilene_nodelay_network.node[10].core_layer 	data[10] 	186839
scalar abilene_nodelay_network.node[10].core_layer 	slots_sent[face$o[1]->client[10]] 	124106319
scalar abilene_nodelay_network.node[10].core_layer 	slots_sent[face$o[2]->node[0]] 	17872239
scalar abilene_nodelay_network.node[10].core_layer 	slots_sent[face$o[3]->node[1]] 	51016917
scalar abilene_nodelay_network.node[10].core_layer 	slots_sent[face$o[4]->node[9]] 	49808801
scalar abilene_nodelay_network.node[10].content_store 	p_hit[10] 	0.17851163948148
scalar abilene_nodelay_network.node[10].content_store 	hits[10] 	94689
scalar abilene_nodelay_network.node[10].content_store 	misses[10] 	435747
scalar abilene_nodelay_network.node[10].content_store 	decision_yes[10] 	98887
scalar abilene_nodelay_network.node[10].content_store 	decision_no[10] 	311599
scalar abilene_nodelay_network.node[10].content_store 	decision_ratio[10] 	0.2409022475797
scalar abilene_nodelay_network.node[10].proactive_component 	hdistance[10].proactive_component 	2.0705271160669
scalar abilene_nodelay_network.node[10].proactive_component 	downloads[10].proactive_component 	197300
scalar abilene_nodelay_network.node[10].proactive_component 	avg_time[10].proactive_component 	0
scalar abilene_nodelay_network.client[0] 	hdistance[0].real 	1.5177374775466
scalar abilene_nodelay_network.client[0] 	downloads[0].real 	179817
scalar abilene_nodelay_network.client[0] 	avg_time[0].real 	0
scalar abilene_nodelay_network.client[1] 	hdistance[1].real 	1.3674609249337
scalar abilene_nodelay_network.client[1] 	downloads[1].real 	180294
scalar abilene_nodelay_network.client[1] 	avg_time[1].real 	0
scalar abilene_nodelay_network.client[2] 	hdistance[2].real 	1.2254677772028
scalar abilene_nodelay_network.client[2] 	downloads[2].real 	179733
scalar abilene_nodelay_network.client[2] 	avg_time[2].real 	0
scalar abilene_nodelay_network.client[3] 	hdistance[3].real 	1.2422739942034
scalar abilene_nodelay_network.client[3] 	downloads[3].real 	180106
scalar abilene_nodelay_network.client[3] 	avg_time[3].real 	0
scalar abilene_nodelay_network.client[4] 	hdistance[4].real 	1.4374412721359
scalar abilene_nodelay_network.client[4] 	downloads[4].real 	179855
scalar abilene_nodelay_network.client[4] 	avg_time[4].real 	0
scalar abilene_nodelay_network.client[5] 	hdistance[5].real 	1.4901848346509
scalar abilene_nodelay_network.client[5] 	downloads[5].real 	179620
scalar abilene_nodelay_network.client[5] 	avg_time[5].real 	0
scalar abilene_nodelay_network.client[6] 	hdistance[6].real 	1.4328237105209
scalar abilene_nodelay_network.client[6] 	downloads[6].real 	179937
scalar abilene_nodelay_network.client[6] 	avg_time[6].real 	0
scalar abilene_nodelay_network.client[7] 	hdistance[7].real 	1.2574351297405
scalar abilene_nodelay_network.client[7] 	downloads[7].real 	180360
scalar abilene_nodelay_network.client[7] 	avg_time[7].real 	0
scalar abilene_nodelay_network.client[8] 	hdistance[8].real 	1.2176448635612
scalar abilene_nodelay_network.client[8] 	downloads[8].real 	179531
scalar abilene_nodelay_network.client[8] 	avg_time[8].real 	0
scalar abilene_nodelay_network.client[9] 	hdistance[9].real 	1.4410596914073
scalar abilene_nodelay_network.client[9] 	downloads[9].real 	179071
scalar abilene_nodelay_network.client[9] 	avg_time[9].real 	0
scalar abilene_nodelay_network.client[10] 	hdistance[10].real 	1.4042711709858
scalar abilene_nodelay_network.client[10] 	downloads[10].real 	179857
scalar abilene_nodelay_network.client[10] 	avg_time[10].real 	0
