version 2
run General-19-20150720-19:28:56-15233
attr C 1e4
attr D lce
attr F spr
attr R always_highq
attr a 1
attr brates 0.3_0.7_1.5_2.5_3.5
attr configname General
attr ctlg 1e6
attr datetime 20150720-19:28:56
attr experiment General
attr inifile omnetpp.ini
attr iterationvars "$net=abilene_nodelay, $rep=9, $lambda=100, $a=1, $ctlg=1e6, $brates=0.3_0.7_1.5_2.5_3.5, $F=spr, $ttl=1000, $D=lce, $R=always_highq, $C=1e4, $window=60, $variance=0.05, $mytime=1800"
attr iterationvars2 "$net=abilene_nodelay, $rep=9, $lambda=100, $a=1, $ctlg=1e6, $brates=0.3_0.7_1.5_2.5_3.5, $F=spr, $ttl=1000, $D=lce, $R=always_highq, $C=1e4, $window=60, $variance=0.05, $mytime=1800, $repetition=0"
attr lambda 100
attr measurement "$net=abilene_nodelay, $rep=9, $lambda=100, $a=1, $ctlg=1e6, $brates=0.3_0.7_1.5_2.5_3.5, $F=spr, $ttl=1000, $D=lce, $R=always_highq, $C=1e4, $window=60, $variance=0.05, $mytime=1800"
attr mytime 1800
attr net abilene_nodelay
attr network networks.${net=abilene_nodelay}_network
attr processid 15233
attr rep 9
attr repetition 0
attr replication #0
attr resultdir results
attr runnumber 19
attr seedset 9
attr ttl 1000
attr variance 0.05
attr window 60

scalar . 	C 	1e4
scalar . 	a 	1
scalar . 	ctlg 	1e6
scalar . 	lambda 	100
scalar . 	mytime 	1800
scalar . 	rep 	9
scalar . 	ttl 	1000
scalar . 	variance 	0.05
scalar . 	window 	60
scalar abilene_nodelay_network.content_distribution 	repo-0 	1
scalar abilene_nodelay_network.content_distribution 	repo-1 	9
scalar abilene_nodelay_network.content_distribution 	repo-2 	5
scalar abilene_nodelay_network.content_distribution 	repo-3 	6
scalar abilene_nodelay_network.content_distribution 	repo-4 	4
scalar abilene_nodelay_network.content_distribution 	repo-5 	0
scalar abilene_nodelay_network.content_distribution 	repo-6 	3
scalar abilene_nodelay_network.content_distribution 	repo-7 	7
scalar abilene_nodelay_network.content_distribution 	repo-8 	8
scalar abilene_nodelay_network.content_distribution 	repo-9 	2
scalar abilene_nodelay_network.content_distribution 	repo-10 	10
scalar abilene_nodelay_network.content_distribution 	client-0 	4
scalar abilene_nodelay_network.content_distribution 	client-1 	7
scalar abilene_nodelay_network.content_distribution 	client-2 	1
scalar abilene_nodelay_network.content_distribution 	client-3 	5
scalar abilene_nodelay_network.content_distribution 	client-4 	0
scalar abilene_nodelay_network.content_distribution 	client-5 	3
scalar abilene_nodelay_network.content_distribution 	client-6 	9
scalar abilene_nodelay_network.content_distribution 	client-7 	10
scalar abilene_nodelay_network.content_distribution 	client-8 	2
scalar abilene_nodelay_network.content_distribution 	client-9 	6
scalar abilene_nodelay_network.content_distribution 	client-10 	8
scalar abilene_nodelay_network.content_distribution 	repo-0_card 	90972
scalar abilene_nodelay_network.content_distribution 	repo-0_price 	0
scalar abilene_nodelay_network.content_distribution 	repo-1_card 	91139
scalar abilene_nodelay_network.content_distribution 	repo-1_price 	0
scalar abilene_nodelay_network.content_distribution 	repo-2_card 	91359
scalar abilene_nodelay_network.content_distribution 	repo-2_price 	0
scalar abilene_nodelay_network.content_distribution 	repo-3_card 	90815
scalar abilene_nodelay_network.content_distribution 	repo-3_price 	0
scalar abilene_nodelay_network.content_distribution 	repo-4_card 	90931
scalar abilene_nodelay_network.content_distribution 	repo-4_price 	0
scalar abilene_nodelay_network.content_distribution 	repo-5_card 	90733
scalar abilene_nodelay_network.content_distribution 	repo-5_price 	0
scalar abilene_nodelay_network.content_distribution 	repo-6_card 	90960
scalar abilene_nodelay_network.content_distribution 	repo-6_price 	0
scalar abilene_nodelay_network.content_distribution 	repo-7_card 	90328
scalar abilene_nodelay_network.content_distribution 	repo-7_price 	0
scalar abilene_nodelay_network.content_distribution 	repo-8_card 	90956
scalar abilene_nodelay_network.content_distribution 	repo-8_price 	0
scalar abilene_nodelay_network.content_distribution 	repo-9_card 	91062
scalar abilene_nodelay_network.content_distribution 	repo-9_price 	0
scalar abilene_nodelay_network.content_distribution 	repo-10_card 	90745
scalar abilene_nodelay_network.content_distribution 	repo-10_price 	0
scalar abilene_nodelay_network.statistics 	stabilization_time 	293.5
scalar abilene_nodelay_network.statistics 	p_hit 	0.13752653292745
scalar abilene_nodelay_network.statistics 	interests 	724100.27272727
scalar abilene_nodelay_network.statistics 	data 	314599.27272727
scalar abilene_nodelay_network.statistics 	hdistance 	1.3669316892229
scalar abilene_nodelay_network.statistics 	avg_time 	0
scalar abilene_nodelay_network.statistics 	downloads 	1980878
scalar abilene_nodelay_network.statistics 	total_cost 	0
scalar abilene_nodelay_network.statistics 	total_replicas 	1000000
scalar abilene_nodelay_network.statistics 	"representations_downloaded 0.447006:0:0:0:0.552994:" 	0
scalar abilene_nodelay_network.statistics 	"slots_per_representation 100:233:500:833:1167:" 	0
scalar abilene_nodelay_network.statistics 	inner_hit 	2167.9640851178
scalar abilene_nodelay_network.statistics 	execution_time 	161
scalar abilene_nodelay_network.node[0].core_layer 	interests[0] 	442421
scalar abilene_nodelay_network.node[0].core_layer 	repo_load[0] 	216950
scalar abilene_nodelay_network.node[0].core_layer 	data[0] 	132666
scalar abilene_nodelay_network.node[0].core_layer 	slots_sent[face$o[1]->client[0]] 	128745997
scalar abilene_nodelay_network.node[0].core_layer 	slots_sent[face$o[2]->node[1]] 	61396286
scalar abilene_nodelay_network.node[0].core_layer 	slots_sent[face$o[3]->node[10]] 	17238802
scalar abilene_nodelay_network.node[0].content_store 	p_hit[0] 	0.20976626335549
scalar abilene_nodelay_network.node[0].content_store 	hits[0] 	92805
scalar abilene_nodelay_network.node[0].content_store 	misses[0] 	349616
scalar abilene_nodelay_network.node[0].content_store 	decision_yes[0] 	71826
scalar abilene_nodelay_network.node[0].content_store 	decision_no[0] 	277790
scalar abilene_nodelay_network.node[0].content_store 	decision_ratio[0] 	0.20544254267539
scalar abilene_nodelay_network.node[0].proactive_component 	hdistance[0].proactive_component 	2.2621915811063
scalar abilene_nodelay_network.node[0].proactive_component 	downloads[0].proactive_component 	161874
scalar abilene_nodelay_network.node[0].proactive_component 	avg_time[0].proactive_component 	0
scalar abilene_nodelay_network.node[1].core_layer 	interests[1] 	876341
scalar abilene_nodelay_network.node[1].core_layer 	repo_load[1] 	228602
scalar abilene_nodelay_network.node[1].core_layer 	data[1] 	411829
scalar abilene_nodelay_network.node[1].core_layer 	slots_sent[face$o[1]->client[1]] 	125076355
scalar abilene_nodelay_network.node[1].core_layer 	slots_sent[face$o[2]->node[0]] 	71723392
scalar abilene_nodelay_network.node[1].core_layer 	slots_sent[face$o[3]->node[10]] 	54926949
scalar abilene_nodelay_network.node[1].core_layer 	slots_sent[face$o[4]->node[2]] 	151597921
scalar abilene_nodelay_network.node[1].content_store 	p_hit[1] 	0.12014843536934
scalar abilene_nodelay_network.node[1].content_store 	hits[1] 	105291
scalar abilene_nodelay_network.node[1].content_store 	misses[1] 	771050
scalar abilene_nodelay_network.node[1].content_store 	decision_yes[1] 	215324
scalar abilene_nodelay_network.node[1].content_store 	decision_no[1] 	425107
scalar abilene_nodelay_network.node[1].content_store 	decision_ratio[1] 	0.33621732864274
scalar abilene_nodelay_network.node[1].proactive_component 	hdistance[1].proactive_component 	2.3630681082282
scalar abilene_nodelay_network.node[1].proactive_component 	downloads[1].proactive_component 	324278
scalar abilene_nodelay_network.node[1].proactive_component 	avg_time[1].proactive_component 	0
scalar abilene_nodelay_network.node[2].core_layer 	interests[2] 	1201914
scalar abilene_nodelay_network.node[2].core_layer 	repo_load[2] 	239810
scalar abilene_nodelay_network.node[2].core_layer 	data[2] 	623293
scalar abilene_nodelay_network.node[2].core_layer 	slots_sent[face$o[1]->client[2]] 	118192803
scalar abilene_nodelay_network.node[2].core_layer 	slots_sent[face$o[2]->node[1]] 	158001276
scalar abilene_nodelay_network.node[2].core_layer 	slots_sent[face$o[3]->node[3]] 	192369001
scalar abilene_nodelay_network.node[2].core_layer 	slots_sent[face$o[4]->node[8]] 	75845948
scalar abilene_nodelay_network.node[2].content_store 	p_hit[2] 	0.090295977915225
scalar abilene_nodelay_network.node[2].content_store 	hits[2] 	108528
scalar abilene_nodelay_network.node[2].content_store 	misses[2] 	1093386
scalar abilene_nodelay_network.node[2].content_store 	decision_yes[2] 	325097
scalar abilene_nodelay_network.node[2].content_store 	decision_no[2] 	538006
scalar abilene_nodelay_network.node[2].content_store 	decision_ratio[2] 	0.37666072299598
scalar abilene_nodelay_network.node[2].proactive_component 	hdistance[2].proactive_component 	2.3492753364906
scalar abilene_nodelay_network.node[2].proactive_component 	downloads[2].proactive_component 	448898
scalar abilene_nodelay_network.node[2].proactive_component 	avg_time[2].proactive_component 	0
scalar abilene_nodelay_network.node[3].core_layer 	interests[3] 	1118695
scalar abilene_nodelay_network.node[3].core_layer 	repo_load[3] 	229897
scalar abilene_nodelay_network.node[3].core_layer 	data[3] 	569927
scalar abilene_nodelay_network.node[3].core_layer 	slots_sent[face$o[1]->client[3]] 	125518353
scalar abilene_nodelay_network.node[3].core_layer 	slots_sent[face$o[2]->node[2]] 	187687567
scalar abilene_nodelay_network.node[3].core_layer 	slots_sent[face$o[3]->node[4]] 	118577067
scalar abilene_nodelay_network.node[3].core_layer 	slots_sent[face$o[4]->node[7]] 	85469412
scalar abilene_nodelay_network.node[3].content_store 	p_hit[3] 	0.10153705880513
scalar abilene_nodelay_network.node[3].content_store 	hits[3] 	113589
scalar abilene_nodelay_network.node[3].content_store 	misses[3] 	1005106
scalar abilene_nodelay_network.node[3].content_store 	decision_yes[3] 	297906
scalar abilene_nodelay_network.node[3].content_store 	decision_no[3] 	501918
scalar abilene_nodelay_network.node[3].content_store 	decision_ratio[3] 	0.37246444217728
scalar abilene_nodelay_network.node[3].proactive_component 	hdistance[3].proactive_component 	2.3820537707464
scalar abilene_nodelay_network.node[3].proactive_component 	downloads[3].proactive_component 	412120
scalar abilene_nodelay_network.node[3].proactive_component 	avg_time[3].proactive_component 	0
scalar abilene_nodelay_network.node[4].core_layer 	interests[4] 	636744
scalar abilene_nodelay_network.node[4].core_layer 	repo_load[4] 	220076
scalar abilene_nodelay_network.node[4].core_layer 	data[4] 	260177
scalar abilene_nodelay_network.node[4].core_layer 	slots_sent[face$o[1]->client[4]] 	125111781
scalar abilene_nodelay_network.node[4].core_layer 	slots_sent[face$o[2]->node[3]] 	104854117
scalar abilene_nodelay_network.node[4].core_layer 	slots_sent[face$o[3]->node[5]] 	63600040
scalar abilene_nodelay_network.node[4].content_store 	p_hit[4] 	0.15333163720428
scalar abilene_nodelay_network.node[4].content_store 	hits[4] 	97633
scalar abilene_nodelay_network.node[4].content_store 	misses[4] 	539111
scalar abilene_nodelay_network.node[4].content_store 	decision_yes[4] 	137879
scalar abilene_nodelay_network.node[4].content_store 	decision_no[4] 	342374
scalar abilene_nodelay_network.node[4].content_store 	decision_ratio[4] 	0.28709659283753
scalar abilene_nodelay_network.node[4].proactive_component 	hdistance[4].proactive_component 	2.3490428975607
scalar abilene_nodelay_network.node[4].proactive_component 	downloads[4].proactive_component 	235398
scalar abilene_nodelay_network.node[4].proactive_component 	avg_time[4].proactive_component 	0
scalar abilene_nodelay_network.node[5].core_layer 	interests[5] 	474048
scalar abilene_nodelay_network.node[5].core_layer 	repo_load[5] 	204487
scalar abilene_nodelay_network.node[5].core_layer 	data[5] 	159746
scalar abilene_nodelay_network.node[5].core_layer 	slots_sent[face$o[1]->client[5]] 	131762057
scalar abilene_nodelay_network.node[5].core_layer 	slots_sent[face$o[2]->node[4]] 	54557526
scalar abilene_nodelay_network.node[5].core_layer 	slots_sent[face$o[3]->node[6]] 	40288101
scalar abilene_nodelay_network.node[5].content_store 	p_hit[5] 	0.20527668084245
scalar abilene_nodelay_network.node[5].content_store 	hits[5] 	97311
scalar abilene_nodelay_network.node[5].content_store 	misses[5] 	376737
scalar abilene_nodelay_network.node[5].content_store 	decision_yes[5] 	85913
scalar abilene_nodelay_network.node[5].content_store 	decision_no[5] 	278320
scalar abilene_nodelay_network.node[5].content_store 	decision_ratio[5] 	0.23587374016083
scalar abilene_nodelay_network.node[5].proactive_component 	hdistance[5].proactive_component 	2.3001425216995
scalar abilene_nodelay_network.node[5].proactive_component 	downloads[5].proactive_component 	171202
scalar abilene_nodelay_network.node[5].proactive_component 	avg_time[5].proactive_component 	0
scalar abilene_nodelay_network.node[6].core_layer 	interests[6] 	563418
scalar abilene_nodelay_network.node[6].core_layer 	repo_load[6] 	236973
scalar abilene_nodelay_network.node[6].core_layer 	data[6] 	210193
scalar abilene_nodelay_network.node[6].core_layer 	slots_sent[face$o[1]->client[6]] 	110590326
scalar abilene_nodelay_network.node[6].core_layer 	slots_sent[face$o[2]->node[5]] 	44043731
scalar abilene_nodelay_network.node[6].core_layer 	slots_sent[face$o[3]->node[7]] 	83896985
scalar abilene_nodelay_network.node[6].content_store 	p_hit[6] 	0.14298265231143
scalar abilene_nodelay_network.node[6].content_store 	hits[6] 	80559
scalar abilene_nodelay_network.node[6].content_store 	misses[6] 	482859
scalar abilene_nodelay_network.node[6].content_store 	decision_yes[6] 	111809
scalar abilene_nodelay_network.node[6].content_store 	decision_no[6] 	335357
scalar abilene_nodelay_network.node[6].content_store 	decision_ratio[6] 	0.25003913535466
scalar abilene_nodelay_network.node[6].proactive_component 	hdistance[6].proactive_component 	2.155527601546
scalar abilene_nodelay_network.node[6].proactive_component 	downloads[6].proactive_component 	219408
scalar abilene_nodelay_network.node[6].proactive_component 	avg_time[6].proactive_component 	0
scalar abilene_nodelay_network.node[7].core_layer 	interests[7] 	808058
scalar abilene_nodelay_network.node[7].core_layer 	repo_load[7] 	243722
scalar abilene_nodelay_network.node[7].core_layer 	data[7] 	359563
scalar abilene_nodelay_network.node[7].core_layer 	slots_sent[face$o[1]->client[7]] 	120421876
scalar abilene_nodelay_network.node[7].core_layer 	slots_sent[face$o[2]->node[3]] 	77635284
scalar abilene_nodelay_network.node[7].core_layer 	slots_sent[face$o[3]->node[6]] 	100031402
scalar abilene_nodelay_network.node[7].core_layer 	slots_sent[face$o[4]->node[8]] 	68686100
scalar abilene_nodelay_network.node[7].content_store 	p_hit[7] 	0.12372626717389
scalar abilene_nodelay_network.node[7].content_store 	hits[7] 	99978
scalar abilene_nodelay_network.node[7].content_store 	misses[7] 	708080
scalar abilene_nodelay_network.node[7].content_store 	decision_yes[7] 	189287
scalar abilene_nodelay_network.node[7].content_store 	decision_no[7] 	413998
scalar abilene_nodelay_network.node[7].content_store 	decision_ratio[7] 	0.31376049462526
scalar abilene_nodelay_network.node[7].proactive_component 	hdistance[7].proactive_component 	2.1956464020922
scalar abilene_nodelay_network.node[7].proactive_component 	downloads[7].proactive_component 	301314
scalar abilene_nodelay_network.node[7].proactive_component 	avg_time[7].proactive_component 	0
scalar abilene_nodelay_network.node[8].core_layer 	interests[8] 	759966
scalar abilene_nodelay_network.node[8].core_layer 	repo_load[8] 	223660
scalar abilene_nodelay_network.node[8].core_layer 	data[8] 	336388
scalar abilene_nodelay_network.node[8].core_layer 	slots_sent[face$o[1]->client[8]] 	127120547
scalar abilene_nodelay_network.node[8].core_layer 	slots_sent[face$o[2]->node[2]] 	69922311
scalar abilene_nodelay_network.node[8].core_layer 	slots_sent[face$o[3]->node[7]] 	68559132
scalar abilene_nodelay_network.node[8].core_layer 	slots_sent[face$o[4]->node[9]] 	89782924
scalar abilene_nodelay_network.node[8].content_store 	p_hit[8] 	0.13850093293647
scalar abilene_nodelay_network.node[8].content_store 	hits[8] 	105256
scalar abilene_nodelay_network.node[8].content_store 	misses[8] 	654710
scalar abilene_nodelay_network.node[8].content_store 	decision_yes[8] 	177124
scalar abilene_nodelay_network.node[8].content_store 	decision_no[8] 	382924
scalar abilene_nodelay_network.node[8].content_store 	decision_ratio[8] 	0.31626574865012
scalar abilene_nodelay_network.node[8].proactive_component 	hdistance[8].proactive_component 	2.1444107914677
scalar abilene_nodelay_network.node[8].proactive_component 	downloads[8].proactive_component 	278331
scalar abilene_nodelay_network.node[8].proactive_component 	avg_time[8].proactive_component 	0
scalar abilene_nodelay_network.node[9].core_layer 	interests[9] 	553177
scalar abilene_nodelay_network.node[9].core_layer 	repo_load[9] 	211512
scalar abilene_nodelay_network.node[9].core_layer 	data[9] 	210367
scalar abilene_nodelay_network.node[9].core_layer 	slots_sent[face$o[1]->client[9]] 	125988496
scalar abilene_nodelay_network.node[9].core_layer 	slots_sent[face$o[2]->node[10]] 	51776511
scalar abilene_nodelay_network.node[9].core_layer 	slots_sent[face$o[3]->node[8]] 	78098060
scalar abilene_nodelay_network.node[9].content_store 	p_hit[9] 	0.17373281969424
scalar abilene_nodelay_network.node[9].content_store 	hits[9] 	96105
scalar abilene_nodelay_network.node[9].content_store 	misses[9] 	457072
scalar abilene_nodelay_network.node[9].content_store 	decision_yes[9] 	111573
scalar abilene_nodelay_network.node[9].content_store 	decision_no[9] 	310306
scalar abilene_nodelay_network.node[9].content_store 	decision_ratio[9] 	0.26446682579602
scalar abilene_nodelay_network.node[9].proactive_component 	hdistance[9].proactive_component 	2.1488324515336
scalar abilene_nodelay_network.node[9].proactive_component 	downloads[9].proactive_component 	204317
scalar abilene_nodelay_network.node[9].proactive_component 	avg_time[9].proactive_component 	0
scalar abilene_nodelay_network.node[10].core_layer 	interests[10] 	530321
scalar abilene_nodelay_network.node[10].core_layer 	repo_load[10] 	220124
scalar abilene_nodelay_network.node[10].core_layer 	data[10] 	186443
scalar abilene_nodelay_network.node[10].core_layer 	slots_sent[face$o[1]->client[10]] 	128364880
scalar abilene_nodelay_network.node[10].core_layer 	slots_sent[face$o[2]->node[0]] 	18181550
scalar abilene_nodelay_network.node[10].core_layer 	slots_sent[face$o[3]->node[1]] 	51536046
scalar abilene_nodelay_network.node[10].core_layer 	slots_sent[face$o[4]->node[9]] 	50302167
scalar abilene_nodelay_network.node[10].content_store 	p_hit[10] 	0.18546880097149
scalar abilene_nodelay_network.node[10].content_store 	hits[10] 	98358
scalar abilene_nodelay_network.node[10].content_store 	misses[10] 	431963
scalar abilene_nodelay_network.node[10].content_store 	decision_yes[10] 	98686
scalar abilene_nodelay_network.node[10].content_store 	decision_no[10] 	307881
scalar abilene_nodelay_network.node[10].content_store 	decision_ratio[10] 	0.24272998054441
scalar abilene_nodelay_network.node[10].proactive_component 	hdistance[10].proactive_component 	2.0890313023979
scalar abilene_nodelay_network.node[10].proactive_component 	downloads[10].proactive_component 	194426
scalar abilene_nodelay_network.node[10].proactive_component 	avg_time[10].proactive_component 	0
scalar abilene_nodelay_network.client[0] 	hdistance[0].real 	1.4970890506083
scalar abilene_nodelay_network.client[0] 	downloads[0].real 	180010
scalar abilene_nodelay_network.client[0] 	avg_time[0].real 	0
scalar abilene_nodelay_network.client[1] 	hdistance[1].real 	1.3476808121466
scalar abilene_nodelay_network.client[1] 	downloads[1].real 	179869
scalar abilene_nodelay_network.client[1] 	avg_time[1].real 	0
scalar abilene_nodelay_network.client[2] 	hdistance[2].real 	1.2501125506478
scalar abilene_nodelay_network.client[2] 	downloads[2].real 	179919
scalar abilene_nodelay_network.client[2] 	avg_time[2].real 	0
scalar abilene_nodelay_network.client[3] 	hdistance[3].real 	1.2430629980287
scalar abilene_nodelay_network.client[3] 	downloads[3].real 	180085
scalar abilene_nodelay_network.client[3] 	avg_time[3].real 	0
scalar abilene_nodelay_network.client[4] 	hdistance[4].real 	1.4364339624733
scalar abilene_nodelay_network.client[4] 	downloads[4].real 	180458
scalar abilene_nodelay_network.client[4] 	avg_time[4].real 	0
scalar abilene_nodelay_network.client[5] 	hdistance[5].real 	1.5006647904802
scalar abilene_nodelay_network.client[5] 	downloads[5].real 	180508
scalar abilene_nodelay_network.client[5] 	avg_time[5].real 	0
scalar abilene_nodelay_network.client[6] 	hdistance[6].real 	1.5340978542299
scalar abilene_nodelay_network.client[6] 	downloads[6].real 	179982
scalar abilene_nodelay_network.client[6] 	avg_time[6].real 	0
scalar abilene_nodelay_network.client[7] 	hdistance[7].real 	1.2891175477536
scalar abilene_nodelay_network.client[7] 	downloads[7].real 	180667
scalar abilene_nodelay_network.client[7] 	avg_time[7].real 	0
scalar abilene_nodelay_network.client[8] 	hdistance[8].real 	1.2095387413727
scalar abilene_nodelay_network.client[8] 	downloads[8].real 	179227
scalar abilene_nodelay_network.client[8] 	avg_time[8].real 	0
scalar abilene_nodelay_network.client[9] 	hdistance[9].real 	1.3462035747382
scalar abilene_nodelay_network.client[9] 	downloads[9].real 	180209
scalar abilene_nodelay_network.client[9] 	avg_time[9].real 	0
scalar abilene_nodelay_network.client[10] 	hdistance[10].real 	1.382246698973
scalar abilene_nodelay_network.client[10] 	downloads[10].real 	179944
scalar abilene_nodelay_network.client[10] 	avg_time[10].real 	0
