version 2
run General-3-20150720-18:57:15-13272
attr C 1e4
attr D lce
attr F spr
attr R always_highq
attr a 1
attr brates 0.3_0.7_1.5_2.5_3.5
attr configname General
attr ctlg 1e6
attr datetime 20150720-18:57:15
attr experiment General
attr inifile omnetpp.ini
attr iterationvars "$net=abilene_nodelay, $rep=1, $lambda=100, $a=1, $ctlg=1e6, $brates=0.3_0.7_1.5_2.5_3.5, $F=spr, $ttl=1000, $D=lce, $R=always_highq, $C=1e4, $window=60, $variance=0.05, $mytime=1800"
attr iterationvars2 "$net=abilene_nodelay, $rep=1, $lambda=100, $a=1, $ctlg=1e6, $brates=0.3_0.7_1.5_2.5_3.5, $F=spr, $ttl=1000, $D=lce, $R=always_highq, $C=1e4, $window=60, $variance=0.05, $mytime=1800, $repetition=0"
attr lambda 100
attr measurement "$net=abilene_nodelay, $rep=1, $lambda=100, $a=1, $ctlg=1e6, $brates=0.3_0.7_1.5_2.5_3.5, $F=spr, $ttl=1000, $D=lce, $R=always_highq, $C=1e4, $window=60, $variance=0.05, $mytime=1800"
attr mytime 1800
attr net abilene_nodelay
attr network networks.${net=abilene_nodelay}_network
attr processid 13272
attr rep 1
attr repetition 0
attr replication #0
attr resultdir results
attr runnumber 3
attr seedset 1
attr ttl 1000
attr variance 0.05
attr window 60

scalar . 	C 	1e4
scalar . 	a 	1
scalar . 	ctlg 	1e6
scalar . 	lambda 	100
scalar . 	mytime 	1800
scalar . 	rep 	1
scalar . 	ttl 	1000
scalar . 	variance 	0.05
scalar . 	window 	60
scalar abilene_nodelay_network.content_distribution 	repo-0 	10
scalar abilene_nodelay_network.content_distribution 	repo-1 	7
scalar abilene_nodelay_network.content_distribution 	repo-2 	5
scalar abilene_nodelay_network.content_distribution 	repo-3 	1
scalar abilene_nodelay_network.content_distribution 	repo-4 	8
scalar abilene_nodelay_network.content_distribution 	repo-5 	2
scalar abilene_nodelay_network.content_distribution 	repo-6 	9
scalar abilene_nodelay_network.content_distribution 	repo-7 	4
scalar abilene_nodelay_network.content_distribution 	repo-8 	6
scalar abilene_nodelay_network.content_distribution 	repo-9 	3
scalar abilene_nodelay_network.content_distribution 	repo-10 	0
scalar abilene_nodelay_network.content_distribution 	client-0 	7
scalar abilene_nodelay_network.content_distribution 	client-1 	5
scalar abilene_nodelay_network.content_distribution 	client-2 	9
scalar abilene_nodelay_network.content_distribution 	client-3 	6
scalar abilene_nodelay_network.content_distribution 	client-4 	8
scalar abilene_nodelay_network.content_distribution 	client-5 	2
scalar abilene_nodelay_network.content_distribution 	client-6 	1
scalar abilene_nodelay_network.content_distribution 	client-7 	10
scalar abilene_nodelay_network.content_distribution 	client-8 	0
scalar abilene_nodelay_network.content_distribution 	client-9 	3
scalar abilene_nodelay_network.content_distribution 	client-10 	4
scalar abilene_nodelay_network.content_distribution 	repo-0_card 	90939
scalar abilene_nodelay_network.content_distribution 	repo-0_price 	0
scalar abilene_nodelay_network.content_distribution 	repo-1_card 	90490
scalar abilene_nodelay_network.content_distribution 	repo-1_price 	0
scalar abilene_nodelay_network.content_distribution 	repo-2_card 	90363
scalar abilene_nodelay_network.content_distribution 	repo-2_price 	0
scalar abilene_nodelay_network.content_distribution 	repo-3_card 	90686
scalar abilene_nodelay_network.content_distribution 	repo-3_price 	0
scalar abilene_nodelay_network.content_distribution 	repo-4_card 	91009
scalar abilene_nodelay_network.content_distribution 	repo-4_price 	0
scalar abilene_nodelay_network.content_distribution 	repo-5_card 	90927
scalar abilene_nodelay_network.content_distribution 	repo-5_price 	0
scalar abilene_nodelay_network.content_distribution 	repo-6_card 	91541
scalar abilene_nodelay_network.content_distribution 	repo-6_price 	0
scalar abilene_nodelay_network.content_distribution 	repo-7_card 	91332
scalar abilene_nodelay_network.content_distribution 	repo-7_price 	0
scalar abilene_nodelay_network.content_distribution 	repo-8_card 	90743
scalar abilene_nodelay_network.content_distribution 	repo-8_price 	0
scalar abilene_nodelay_network.content_distribution 	repo-9_card 	91264
scalar abilene_nodelay_network.content_distribution 	repo-9_price 	0
scalar abilene_nodelay_network.content_distribution 	repo-10_card 	90706
scalar abilene_nodelay_network.content_distribution 	repo-10_price 	0
scalar abilene_nodelay_network.statistics 	stabilization_time 	289.5
scalar abilene_nodelay_network.statistics 	p_hit 	0.13780889838663
scalar abilene_nodelay_network.statistics 	interests 	722766.36363636
scalar abilene_nodelay_network.statistics 	data 	313850.09090909
scalar abilene_nodelay_network.statistics 	hdistance 	1.3650237014053
scalar abilene_nodelay_network.statistics 	avg_time 	0
scalar abilene_nodelay_network.statistics 	downloads 	1979754
scalar abilene_nodelay_network.statistics 	total_cost 	0
scalar abilene_nodelay_network.statistics 	total_replicas 	1000000
scalar abilene_nodelay_network.statistics 	"representations_downloaded 0.446578:0:0:0:0.553422:" 	0
scalar abilene_nodelay_network.statistics 	"slots_per_representation 100:233:500:833:1167:" 	0
scalar abilene_nodelay_network.statistics 	inner_hit 	2169.1960804221
scalar abilene_nodelay_network.statistics 	execution_time 	163
scalar abilene_nodelay_network.node[0].core_layer 	interests[0] 	437583
scalar abilene_nodelay_network.node[0].core_layer 	repo_load[0] 	211192
scalar abilene_nodelay_network.node[0].core_layer 	data[0] 	132770
scalar abilene_nodelay_network.node[0].core_layer 	slots_sent[face$o[1]->client[0]] 	129699169
scalar abilene_nodelay_network.node[0].core_layer 	slots_sent[face$o[2]->node[1]] 	59988649
scalar abilene_nodelay_network.node[0].core_layer 	slots_sent[face$o[3]->node[10]] 	17194457
scalar abilene_nodelay_network.node[0].content_store 	p_hit[0] 	0.21395026772064
scalar abilene_nodelay_network.node[0].content_store 	hits[0] 	93621
scalar abilene_nodelay_network.node[0].content_store 	misses[0] 	343962
scalar abilene_nodelay_network.node[0].content_store 	decision_yes[0] 	71928
scalar abilene_nodelay_network.node[0].content_store 	decision_no[0] 	272034
scalar abilene_nodelay_network.node[0].content_store 	decision_ratio[0] 	0.20911612329269
scalar abilene_nodelay_network.node[0].proactive_component 	hdistance[0].proactive_component 	2.2883586406363
scalar abilene_nodelay_network.node[0].proactive_component 	downloads[0].proactive_component 	159045
scalar abilene_nodelay_network.node[0].proactive_component 	avg_time[0].proactive_component 	0
scalar abilene_nodelay_network.node[1].core_layer 	interests[1] 	881599
scalar abilene_nodelay_network.node[1].core_layer 	repo_load[1] 	248235
scalar abilene_nodelay_network.node[1].core_layer 	data[1] 	409979
scalar abilene_nodelay_network.node[1].core_layer 	slots_sent[face$o[1]->client[1]] 	112581628
scalar abilene_nodelay_network.node[1].core_layer 	slots_sent[face$o[2]->node[0]] 	71979628
scalar abilene_nodelay_network.node[1].core_layer 	slots_sent[face$o[3]->node[10]] 	55606667
scalar abilene_nodelay_network.node[1].core_layer 	slots_sent[face$o[4]->node[2]] 	148143502
scalar abilene_nodelay_network.node[1].content_store 	p_hit[1] 	0.10573514715874
scalar abilene_nodelay_network.node[1].content_store 	hits[1] 	93216
scalar abilene_nodelay_network.node[1].content_store 	misses[1] 	788383
scalar abilene_nodelay_network.node[1].content_store 	decision_yes[1] 	214550
scalar abilene_nodelay_network.node[1].content_store 	decision_no[1] 	443664
scalar abilene_nodelay_network.node[1].content_store 	decision_ratio[1] 	0.3259578191895
scalar abilene_nodelay_network.node[1].proactive_component 	hdistance[1].proactive_component 	2.3126506114039
scalar abilene_nodelay_network.node[1].proactive_component 	downloads[1].proactive_component 	334885
scalar abilene_nodelay_network.node[1].proactive_component 	avg_time[1].proactive_component 	0
scalar abilene_nodelay_network.node[2].core_layer 	interests[2] 	1198542
scalar abilene_nodelay_network.node[2].core_layer 	repo_load[2] 	236281
scalar abilene_nodelay_network.node[2].core_layer 	data[2] 	621343
scalar abilene_nodelay_network.node[2].core_layer 	slots_sent[face$o[1]->client[2]] 	120710529
scalar abilene_nodelay_network.node[2].core_layer 	slots_sent[face$o[2]->node[1]] 	159356940
scalar abilene_nodelay_network.node[2].core_layer 	slots_sent[face$o[3]->node[3]] 	190785849
scalar abilene_nodelay_network.node[2].core_layer 	slots_sent[face$o[4]->node[8]] 	76141632
scalar abilene_nodelay_network.node[2].content_store 	p_hit[2] 	0.092903711342615
scalar abilene_nodelay_network.node[2].content_store 	hits[2] 	111349
scalar abilene_nodelay_network.node[2].content_store 	misses[2] 	1087193
scalar abilene_nodelay_network.node[2].content_store 	decision_yes[2] 	324117
scalar abilene_nodelay_network.node[2].content_store 	decision_no[2] 	533507
scalar abilene_nodelay_network.node[2].content_store 	decision_ratio[2] 	0.37792435846012
scalar abilene_nodelay_network.node[2].proactive_component 	hdistance[2].proactive_component 	2.3507355055533
scalar abilene_nodelay_network.node[2].proactive_component 	downloads[2].proactive_component 	445136
scalar abilene_nodelay_network.node[2].proactive_component 	avg_time[2].proactive_component 	0
scalar abilene_nodelay_network.node[3].core_layer 	interests[3] 	1120430
scalar abilene_nodelay_network.node[3].core_layer 	repo_load[3] 	239810
scalar abilene_nodelay_network.node[3].core_layer 	data[3] 	568058
scalar abilene_nodelay_network.node[3].core_layer 	slots_sent[face$o[1]->client[3]] 	120527084
scalar abilene_nodelay_network.node[3].core_layer 	slots_sent[face$o[2]->node[2]] 	188335777
scalar abilene_nodelay_network.node[3].core_layer 	slots_sent[face$o[3]->node[4]] 	116940291
scalar abilene_nodelay_network.node[3].core_layer 	slots_sent[face$o[4]->node[7]] 	84669798
scalar abilene_nodelay_network.node[3].content_store 	p_hit[3] 	0.096952063047223
scalar abilene_nodelay_network.node[3].content_store 	hits[3] 	108628
scalar abilene_nodelay_network.node[3].content_store 	misses[3] 	1011802
scalar abilene_nodelay_network.node[3].content_store 	decision_yes[3] 	296917
scalar abilene_nodelay_network.node[3].content_store 	decision_no[3] 	510951
scalar abilene_nodelay_network.node[3].content_store 	decision_ratio[3] 	0.36753157694079
scalar abilene_nodelay_network.node[3].proactive_component 	hdistance[3].proactive_component 	2.355512810353
scalar abilene_nodelay_network.node[3].proactive_component 	downloads[3].proactive_component 	416421
scalar abilene_nodelay_network.node[3].proactive_component 	avg_time[3].proactive_component 	0
scalar abilene_nodelay_network.node[4].core_layer 	interests[4] 	635684
scalar abilene_nodelay_network.node[4].core_layer 	repo_load[4] 	223623
scalar abilene_nodelay_network.node[4].core_layer 	data[4] 	255698
scalar abilene_nodelay_network.node[4].core_layer 	slots_sent[face$o[1]->client[4]] 	126261164
scalar abilene_nodelay_network.node[4].core_layer 	slots_sent[face$o[2]->node[3]] 	105750153
scalar abilene_nodelay_network.node[4].core_layer 	slots_sent[face$o[3]->node[5]] 	63226269
scalar abilene_nodelay_network.node[4].content_store 	p_hit[4] 	0.15581798503659
scalar abilene_nodelay_network.node[4].content_store 	hits[4] 	99051
scalar abilene_nodelay_network.node[4].content_store 	misses[4] 	536633
scalar abilene_nodelay_network.node[4].content_store 	decision_yes[4] 	135396
scalar abilene_nodelay_network.node[4].content_store 	decision_no[4] 	343925
scalar abilene_nodelay_network.node[4].content_store 	decision_ratio[4] 	0.28247458383839
scalar abilene_nodelay_network.node[4].proactive_component 	hdistance[4].proactive_component 	2.3408454563358
scalar abilene_nodelay_network.node[4].proactive_component 	downloads[4].proactive_component 	233578
scalar abilene_nodelay_network.node[4].proactive_component 	avg_time[4].proactive_component 	0
scalar abilene_nodelay_network.node[5].core_layer 	interests[5] 	469941
scalar abilene_nodelay_network.node[5].core_layer 	repo_load[5] 	199281
scalar abilene_nodelay_network.node[5].core_layer 	data[5] 	159532
scalar abilene_nodelay_network.node[5].core_layer 	slots_sent[face$o[1]->client[5]] 	132474798
scalar abilene_nodelay_network.node[5].core_layer 	slots_sent[face$o[2]->node[4]] 	53097041
scalar abilene_nodelay_network.node[5].core_layer 	slots_sent[face$o[3]->node[6]] 	40858420
scalar abilene_nodelay_network.node[5].content_store 	p_hit[5] 	0.20913263579896
scalar abilene_nodelay_network.node[5].content_store 	hits[5] 	98280
scalar abilene_nodelay_network.node[5].content_store 	misses[5] 	371661
scalar abilene_nodelay_network.node[5].content_store 	decision_yes[5] 	85712
scalar abilene_nodelay_network.node[5].content_store 	decision_no[5] 	273101
scalar abilene_nodelay_network.node[5].content_store 	decision_ratio[5] 	0.23887651785192
scalar abilene_nodelay_network.node[5].proactive_component 	hdistance[5].proactive_component 	2.3116631399257
scalar abilene_nodelay_network.node[5].proactive_component 	downloads[5].proactive_component 	168711
scalar abilene_nodelay_network.node[5].proactive_component 	avg_time[5].proactive_component 	0
scalar abilene_nodelay_network.node[6].core_layer 	interests[6] 	556144
scalar abilene_nodelay_network.node[6].core_layer 	repo_load[6] 	221785
scalar abilene_nodelay_network.node[6].core_layer 	data[6] 	210204
scalar abilene_nodelay_network.node[6].core_layer 	slots_sent[face$o[1]->client[6]] 	118893530
scalar abilene_nodelay_network.node[6].core_layer 	slots_sent[face$o[2]->node[5]] 	44181635
scalar abilene_nodelay_network.node[6].core_layer 	slots_sent[face$o[3]->node[7]] 	84191259
scalar abilene_nodelay_network.node[6].content_store 	p_hit[6] 	0.15871428982422
scalar abilene_nodelay_network.node[6].content_store 	hits[6] 	88268
scalar abilene_nodelay_network.node[6].content_store 	misses[6] 	467876
scalar abilene_nodelay_network.node[6].content_store 	decision_yes[6] 	111821
scalar abilene_nodelay_network.node[6].content_store 	decision_no[6] 	320168
scalar abilene_nodelay_network.node[6].content_store 	decision_ratio[6] 	0.25885149853353
scalar abilene_nodelay_network.node[6].proactive_component 	hdistance[6].proactive_component 	2.2029030368547
scalar abilene_nodelay_network.node[6].proactive_component 	downloads[6].proactive_component 	209987
scalar abilene_nodelay_network.node[6].proactive_component 	avg_time[6].proactive_component 	0
scalar abilene_nodelay_network.node[7].core_layer 	interests[7] 	798032
scalar abilene_nodelay_network.node[7].core_layer 	repo_load[7] 	227182
scalar abilene_nodelay_network.node[7].core_layer 	data[7] 	359918
scalar abilene_nodelay_network.node[7].core_layer 	slots_sent[face$o[1]->client[7]] 	126652012
scalar abilene_nodelay_network.node[7].core_layer 	slots_sent[face$o[2]->node[3]] 	77080237
scalar abilene_nodelay_network.node[7].core_layer 	slots_sent[face$o[3]->node[6]] 	99474987
scalar abilene_nodelay_network.node[7].core_layer 	slots_sent[face$o[4]->node[8]] 	68561766
scalar abilene_nodelay_network.node[7].content_store 	p_hit[7] 	0.13267011849149
scalar abilene_nodelay_network.node[7].content_store 	hits[7] 	105875
scalar abilene_nodelay_network.node[7].content_store 	misses[7] 	692157
scalar abilene_nodelay_network.node[7].content_store 	decision_yes[7] 	189390
scalar abilene_nodelay_network.node[7].content_store 	decision_no[7] 	397710
scalar abilene_nodelay_network.node[7].content_store 	decision_ratio[7] 	0.32258559018906
scalar abilene_nodelay_network.node[7].proactive_component 	hdistance[7].proactive_component 	2.2233475115226
scalar abilene_nodelay_network.node[7].proactive_component 	downloads[7].proactive_component 	292468
scalar abilene_nodelay_network.node[7].proactive_component 	avg_time[7].proactive_component 	0
scalar abilene_nodelay_network.node[8].core_layer 	interests[8] 	769884
scalar abilene_nodelay_network.node[8].core_layer 	repo_load[8] 	235355
scalar abilene_nodelay_network.node[8].core_layer 	data[8] 	336569
scalar abilene_nodelay_network.node[8].core_layer 	slots_sent[face$o[1]->client[8]] 	125032562
scalar abilene_nodelay_network.node[8].core_layer 	slots_sent[face$o[2]->node[2]] 	71487860
scalar abilene_nodelay_network.node[8].core_layer 	slots_sent[face$o[3]->node[7]] 	69209873
scalar abilene_nodelay_network.node[8].core_layer 	slots_sent[face$o[4]->node[9]] 	90371685
scalar abilene_nodelay_network.node[8].content_store 	p_hit[8] 	0.13455923229993
scalar abilene_nodelay_network.node[8].content_store 	hits[8] 	103595
scalar abilene_nodelay_network.node[8].content_store 	misses[8] 	666289
scalar abilene_nodelay_network.node[8].content_store 	decision_yes[8] 	177265
scalar abilene_nodelay_network.node[8].content_store 	decision_no[8] 	394659
scalar abilene_nodelay_network.node[8].content_store 	decision_ratio[8] 	0.30994502766102
scalar abilene_nodelay_network.node[8].proactive_component 	hdistance[8].proactive_component 	2.1232458923912
scalar abilene_nodelay_network.node[8].proactive_component 	downloads[8].proactive_component 	283620
scalar abilene_nodelay_network.node[8].proactive_component 	avg_time[8].proactive_component 	0
scalar abilene_nodelay_network.node[9].core_layer 	interests[9] 	554600
scalar abilene_nodelay_network.node[9].core_layer 	repo_load[9] 	212473
scalar abilene_nodelay_network.node[9].core_layer 	data[9] 	211146
scalar abilene_nodelay_network.node[9].core_layer 	slots_sent[face$o[1]->client[9]] 	125673548
scalar abilene_nodelay_network.node[9].core_layer 	slots_sent[face$o[2]->node[10]] 	51612497
scalar abilene_nodelay_network.node[9].core_layer 	slots_sent[face$o[3]->node[8]] 	78095257
scalar abilene_nodelay_network.node[9].content_store 	p_hit[9] 	0.17215831229715
scalar abilene_nodelay_network.node[9].content_store 	hits[9] 	95479
scalar abilene_nodelay_network.node[9].content_store 	misses[9] 	459121
scalar abilene_nodelay_network.node[9].content_store 	decision_yes[9] 	111981
scalar abilene_nodelay_network.node[9].content_store 	decision_no[9] 	311638
scalar abilene_nodelay_network.node[9].content_store 	decision_ratio[9] 	0.26434366730482
scalar abilene_nodelay_network.node[9].proactive_component 	hdistance[9].proactive_component 	2.1465919837765
scalar abilene_nodelay_network.node[9].proactive_component 	downloads[9].proactive_component 	205134
scalar abilene_nodelay_network.node[9].proactive_component 	avg_time[9].proactive_component 	0
scalar abilene_nodelay_network.node[10].core_layer 	interests[10] 	527991
scalar abilene_nodelay_network.node[10].core_layer 	repo_load[10] 	217216
scalar abilene_nodelay_network.node[10].core_layer 	data[10] 	187134
scalar abilene_nodelay_network.node[10].core_layer 	slots_sent[face$o[1]->client[10]] 	128517256
scalar abilene_nodelay_network.node[10].core_layer 	slots_sent[face$o[2]->node[0]] 	18044548
scalar abilene_nodelay_network.node[10].core_layer 	slots_sent[face$o[3]->node[1]] 	50577161
scalar abilene_nodelay_network.node[10].core_layer 	slots_sent[face$o[4]->node[9]] 	50226642
scalar abilene_nodelay_network.node[10].content_store 	p_hit[10] 	0.18613574852602
scalar abilene_nodelay_network.node[10].content_store 	hits[10] 	98278
scalar abilene_nodelay_network.node[10].content_store 	misses[10] 	429713
scalar abilene_nodelay_network.node[10].content_store 	decision_yes[10] 	99063
scalar abilene_nodelay_network.node[10].content_store 	decision_no[10] 	305287
scalar abilene_nodelay_network.node[10].content_store 	decision_ratio[10] 	0.2449931989613
scalar abilene_nodelay_network.node[10].proactive_component 	hdistance[10].proactive_component 	2.0986032246032
scalar abilene_nodelay_network.node[10].proactive_component 	downloads[10].proactive_component 	193016
scalar abilene_nodelay_network.node[10].proactive_component 	avg_time[10].proactive_component 	0
scalar abilene_nodelay_network.client[0] 	hdistance[0].real 	1.4952049307997
scalar abilene_nodelay_network.client[0] 	downloads[0].real 	179768
scalar abilene_nodelay_network.client[0] 	avg_time[0].real 	0
scalar abilene_nodelay_network.client[1] 	hdistance[1].real 	1.4084696866751
scalar abilene_nodelay_network.client[1] 	downloads[1].real 	179558
scalar abilene_nodelay_network.client[1] 	avg_time[1].real 	0
scalar abilene_nodelay_network.client[2] 	hdistance[2].real 	1.2320960589351
scalar abilene_nodelay_network.client[2] 	downloads[2].real 	179723
scalar abilene_nodelay_network.client[2] 	avg_time[2].real 	0
scalar abilene_nodelay_network.client[3] 	hdistance[3].real 	1.2704660857225
scalar abilene_nodelay_network.client[3] 	downloads[3].real 	180396
scalar abilene_nodelay_network.client[3] 	avg_time[3].real 	0
scalar abilene_nodelay_network.client[4] 	hdistance[4].real 	1.4243483293636
scalar abilene_nodelay_network.client[4] 	downloads[4].real 	179692
scalar abilene_nodelay_network.client[4] 	avg_time[4].real 	0
scalar abilene_nodelay_network.client[5] 	hdistance[5].real 	1.4867302871816
scalar abilene_nodelay_network.client[5] 	downloads[5].real 	179921
scalar abilene_nodelay_network.client[5] 	avg_time[5].real 	0
scalar abilene_nodelay_network.client[6] 	hdistance[6].real 	1.4845819881999
scalar abilene_nodelay_network.client[6] 	downloads[6].real 	179660
scalar abilene_nodelay_network.client[6] 	avg_time[6].real 	0
scalar abilene_nodelay_network.client[7] 	hdistance[7].real 	1.2526760406825
scalar abilene_nodelay_network.client[7] 	downloads[7].real 	179930
scalar abilene_nodelay_network.client[7] 	avg_time[7].real 	0
scalar abilene_nodelay_network.client[8] 	hdistance[8].real 	1.2204976868545
scalar abilene_nodelay_network.client[8] 	downloads[8].real 	180274
scalar abilene_nodelay_network.client[8] 	avg_time[8].real 	0
scalar abilene_nodelay_network.client[9] 	hdistance[9].real 	1.3524982017374
scalar abilene_nodelay_network.client[9] 	downloads[9].real 	180730
scalar abilene_nodelay_network.client[9] 	avg_time[9].real 	0
scalar abilene_nodelay_network.client[10] 	hdistance[10].real 	1.3876914193068
scalar abilene_nodelay_network.client[10] 	downloads[10].real 	180102
scalar abilene_nodelay_network.client[10] 	avg_time[10].real 	0
