version 2
run General-17-20150720-19:26:22-15226
attr C 1e4
attr D lce
attr F spr
attr R always_highq
attr a 1
attr brates 0.3_0.7_1.5_2.5_3.5
attr configname General
attr ctlg 1e6
attr datetime 20150720-19:26:22
attr experiment General
attr inifile omnetpp.ini
attr iterationvars "$net=abilene_nodelay, $rep=8, $lambda=100, $a=1, $ctlg=1e6, $brates=0.3_0.7_1.5_2.5_3.5, $F=spr, $ttl=1000, $D=lce, $R=always_highq, $C=1e4, $window=60, $variance=0.05, $mytime=1800"
attr iterationvars2 "$net=abilene_nodelay, $rep=8, $lambda=100, $a=1, $ctlg=1e6, $brates=0.3_0.7_1.5_2.5_3.5, $F=spr, $ttl=1000, $D=lce, $R=always_highq, $C=1e4, $window=60, $variance=0.05, $mytime=1800, $repetition=0"
attr lambda 100
attr measurement "$net=abilene_nodelay, $rep=8, $lambda=100, $a=1, $ctlg=1e6, $brates=0.3_0.7_1.5_2.5_3.5, $F=spr, $ttl=1000, $D=lce, $R=always_highq, $C=1e4, $window=60, $variance=0.05, $mytime=1800"
attr mytime 1800
attr net abilene_nodelay
attr network networks.${net=abilene_nodelay}_network
attr processid 15226
attr rep 8
attr repetition 0
attr replication #0
attr resultdir results
attr runnumber 17
attr seedset 8
attr ttl 1000
attr variance 0.05
attr window 60

scalar . 	C 	1e4
scalar . 	a 	1
scalar . 	ctlg 	1e6
scalar . 	lambda 	100
scalar . 	mytime 	1800
scalar . 	rep 	8
scalar . 	ttl 	1000
scalar . 	variance 	0.05
scalar . 	window 	60
scalar abilene_nodelay_network.content_distribution 	repo-0 	4
scalar abilene_nodelay_network.content_distribution 	repo-1 	10
scalar abilene_nodelay_network.content_distribution 	repo-2 	6
scalar abilene_nodelay_network.content_distribution 	repo-3 	7
scalar abilene_nodelay_network.content_distribution 	repo-4 	2
scalar abilene_nodelay_network.content_distribution 	repo-5 	8
scalar abilene_nodelay_network.content_distribution 	repo-6 	9
scalar abilene_nodelay_network.content_distribution 	repo-7 	5
scalar abilene_nodelay_network.content_distribution 	repo-8 	1
scalar abilene_nodelay_network.content_distribution 	repo-9 	3
scalar abilene_nodelay_network.content_distribution 	repo-10 	0
scalar abilene_nodelay_network.content_distribution 	client-0 	9
scalar abilene_nodelay_network.content_distribution 	client-1 	0
scalar abilene_nodelay_network.content_distribution 	client-2 	2
scalar abilene_nodelay_network.content_distribution 	client-3 	5
scalar abilene_nodelay_network.content_distribution 	client-4 	4
scalar abilene_nodelay_network.content_distribution 	client-5 	10
scalar abilene_nodelay_network.content_distribution 	client-6 	1
scalar abilene_nodelay_network.content_distribution 	client-7 	6
scalar abilene_nodelay_network.content_distribution 	client-8 	8
scalar abilene_nodelay_network.content_distribution 	client-9 	3
scalar abilene_nodelay_network.content_distribution 	client-10 	7
scalar abilene_nodelay_network.content_distribution 	repo-0_card 	91455
scalar abilene_nodelay_network.content_distribution 	repo-0_price 	0
scalar abilene_nodelay_network.content_distribution 	repo-1_card 	90753
scalar abilene_nodelay_network.content_distribution 	repo-1_price 	0
scalar abilene_nodelay_network.content_distribution 	repo-2_card 	90990
scalar abilene_nodelay_network.content_distribution 	repo-2_price 	0
scalar abilene_nodelay_network.content_distribution 	repo-3_card 	90852
scalar abilene_nodelay_network.content_distribution 	repo-3_price 	0
scalar abilene_nodelay_network.content_distribution 	repo-4_card 	91138
scalar abilene_nodelay_network.content_distribution 	repo-4_price 	0
scalar abilene_nodelay_network.content_distribution 	repo-5_card 	90904
scalar abilene_nodelay_network.content_distribution 	repo-5_price 	0
scalar abilene_nodelay_network.content_distribution 	repo-6_card 	90400
scalar abilene_nodelay_network.content_distribution 	repo-6_price 	0
scalar abilene_nodelay_network.content_distribution 	repo-7_card 	90783
scalar abilene_nodelay_network.content_distribution 	repo-7_price 	0
scalar abilene_nodelay_network.content_distribution 	repo-8_card 	91409
scalar abilene_nodelay_network.content_distribution 	repo-8_price 	0
scalar abilene_nodelay_network.content_distribution 	repo-9_card 	90839
scalar abilene_nodelay_network.content_distribution 	repo-9_price 	0
scalar abilene_nodelay_network.content_distribution 	repo-10_card 	90477
scalar abilene_nodelay_network.content_distribution 	repo-10_price 	0
scalar abilene_nodelay_network.statistics 	stabilization_time 	289
scalar abilene_nodelay_network.statistics 	p_hit 	0.13744722390752
scalar abilene_nodelay_network.statistics 	interests 	723877.18181818
scalar abilene_nodelay_network.statistics 	data 	314422.45454545
scalar abilene_nodelay_network.statistics 	hdistance 	1.3666547850543
scalar abilene_nodelay_network.statistics 	avg_time 	0
scalar abilene_nodelay_network.statistics 	downloads 	1980255
scalar abilene_nodelay_network.statistics 	total_cost 	0
scalar abilene_nodelay_network.statistics 	total_replicas 	1000000
scalar abilene_nodelay_network.statistics 	"representations_downloaded 0.447322:0:0:0:0.552678:" 	0
scalar abilene_nodelay_network.statistics 	"slots_per_representation 100:233:500:833:1167:" 	0
scalar abilene_nodelay_network.statistics 	inner_hit 	2168.6452446781
scalar abilene_nodelay_network.statistics 	execution_time 	153
scalar abilene_nodelay_network.node[0].core_layer 	interests[0] 	437846
scalar abilene_nodelay_network.node[0].core_layer 	repo_load[0] 	210616
scalar abilene_nodelay_network.node[0].core_layer 	data[0] 	133601
scalar abilene_nodelay_network.node[0].core_layer 	slots_sent[face$o[1]->client[0]] 	129867302
scalar abilene_nodelay_network.node[0].core_layer 	slots_sent[face$o[2]->node[1]] 	59784662
scalar abilene_nodelay_network.node[0].core_layer 	slots_sent[face$o[3]->node[10]] 	17023412
scalar abilene_nodelay_network.node[0].content_store 	p_hit[0] 	0.2138400259452
scalar abilene_nodelay_network.node[0].content_store 	hits[0] 	93629
scalar abilene_nodelay_network.node[0].content_store 	misses[0] 	344217
scalar abilene_nodelay_network.node[0].content_store 	decision_yes[0] 	72389
scalar abilene_nodelay_network.node[0].content_store 	decision_no[0] 	271828
scalar abilene_nodelay_network.node[0].content_store 	decision_ratio[0] 	0.21030047905827
scalar abilene_nodelay_network.node[0].proactive_component 	hdistance[0].proactive_component 	2.2908715282356
scalar abilene_nodelay_network.node[0].proactive_component 	downloads[0].proactive_component 	159249
scalar abilene_nodelay_network.node[0].proactive_component 	avg_time[0].proactive_component 	0
scalar abilene_nodelay_network.node[1].core_layer 	interests[1] 	875217
scalar abilene_nodelay_network.node[1].core_layer 	repo_load[1] 	231065
scalar abilene_nodelay_network.node[1].core_layer 	data[1] 	410980
scalar abilene_nodelay_network.node[1].core_layer 	slots_sent[face$o[1]->client[1]] 	123741788
scalar abilene_nodelay_network.node[1].core_layer 	slots_sent[face$o[2]->node[0]] 	72635436
scalar abilene_nodelay_network.node[1].core_layer 	slots_sent[face$o[3]->node[10]] 	54669547
scalar abilene_nodelay_network.node[1].core_layer 	slots_sent[face$o[4]->node[2]] 	149062770
scalar abilene_nodelay_network.node[1].content_store 	p_hit[1] 	0.11772508989199
scalar abilene_nodelay_network.node[1].content_store 	hits[1] 	103035
scalar abilene_nodelay_network.node[1].content_store 	misses[1] 	772182
scalar abilene_nodelay_network.node[1].content_store 	decision_yes[1] 	215106
scalar abilene_nodelay_network.node[1].content_store 	decision_no[1] 	426939
scalar abilene_nodelay_network.node[1].content_store 	decision_ratio[1] 	0.33503259117352
scalar abilene_nodelay_network.node[1].proactive_component 	hdistance[1].proactive_component 	2.3563224768352
scalar abilene_nodelay_network.node[1].proactive_component 	downloads[1].proactive_component 	324414
scalar abilene_nodelay_network.node[1].proactive_component 	avg_time[1].proactive_component 	0
scalar abilene_nodelay_network.node[2].core_layer 	interests[2] 	1196854
scalar abilene_nodelay_network.node[2].core_layer 	repo_load[2] 	229768
scalar abilene_nodelay_network.node[2].core_layer 	data[2] 	622243
scalar abilene_nodelay_network.node[2].core_layer 	slots_sent[face$o[1]->client[2]] 	124286159
scalar abilene_nodelay_network.node[2].core_layer 	slots_sent[face$o[2]->node[1]] 	159875647
scalar abilene_nodelay_network.node[2].core_layer 	slots_sent[face$o[3]->node[3]] 	191518469
scalar abilene_nodelay_network.node[2].core_layer 	slots_sent[face$o[4]->node[8]] 	75620085
scalar abilene_nodelay_network.node[2].content_store 	p_hit[2] 	0.095728468133958
scalar abilene_nodelay_network.node[2].content_store 	hits[2] 	114573
scalar abilene_nodelay_network.node[2].content_store 	misses[2] 	1082281
scalar abilene_nodelay_network.node[2].content_store 	decision_yes[2] 	324422
scalar abilene_nodelay_network.node[2].content_store 	decision_no[2] 	527589
scalar abilene_nodelay_network.node[2].content_store 	decision_ratio[2] 	0.38077207923372
scalar abilene_nodelay_network.node[2].proactive_component 	hdistance[2].proactive_component 	2.3636289496815
scalar abilene_nodelay_network.node[2].proactive_component 	downloads[2].proactive_component 	441428
scalar abilene_nodelay_network.node[2].proactive_component 	avg_time[2].proactive_component 	0
scalar abilene_nodelay_network.node[3].core_layer 	interests[3] 	1116087
scalar abilene_nodelay_network.node[3].core_layer 	repo_load[3] 	226897
scalar abilene_nodelay_network.node[3].core_layer 	data[3] 	570306
scalar abilene_nodelay_network.node[3].core_layer 	slots_sent[face$o[1]->client[3]] 	125277607
scalar abilene_nodelay_network.node[3].core_layer 	slots_sent[face$o[2]->node[2]] 	188212814
scalar abilene_nodelay_network.node[3].core_layer 	slots_sent[face$o[3]->node[4]] 	117686996
scalar abilene_nodelay_network.node[3].core_layer 	slots_sent[face$o[4]->node[7]] 	84376314
scalar abilene_nodelay_network.node[3].content_store 	p_hit[3] 	0.1018038916321
scalar abilene_nodelay_network.node[3].content_store 	hits[3] 	113622
scalar abilene_nodelay_network.node[3].content_store 	misses[3] 	1002465
scalar abilene_nodelay_network.node[3].content_store 	decision_yes[3] 	297863
scalar abilene_nodelay_network.node[3].content_store 	decision_no[3] 	499340
scalar abilene_nodelay_network.node[3].content_store 	decision_ratio[3] 	0.37363507161915
scalar abilene_nodelay_network.node[3].proactive_component 	hdistance[3].proactive_component 	2.3788540461548
scalar abilene_nodelay_network.node[3].proactive_component 	downloads[3].proactive_component 	410575
scalar abilene_nodelay_network.node[3].proactive_component 	avg_time[3].proactive_component 	0
scalar abilene_nodelay_network.node[4].core_layer 	interests[4] 	634262
scalar abilene_nodelay_network.node[4].core_layer 	repo_load[4] 	219675
scalar abilene_nodelay_network.node[4].core_layer 	data[4] 	257674
scalar abilene_nodelay_network.node[4].core_layer 	slots_sent[face$o[1]->client[4]] 	127270233
scalar abilene_nodelay_network.node[4].core_layer 	slots_sent[face$o[2]->node[3]] 	104878617
scalar abilene_nodelay_network.node[4].core_layer 	slots_sent[face$o[3]->node[5]] 	63292418
scalar abilene_nodelay_network.node[4].content_store 	p_hit[4] 	0.15644481302679
scalar abilene_nodelay_network.node[4].content_store 	hits[4] 	99227
scalar abilene_nodelay_network.node[4].content_store 	misses[4] 	535035
scalar abilene_nodelay_network.node[4].content_store 	decision_yes[4] 	136589
scalar abilene_nodelay_network.node[4].content_store 	decision_no[4] 	340760
scalar abilene_nodelay_network.node[4].content_store 	decision_ratio[4] 	0.28614074817377
scalar abilene_nodelay_network.node[4].proactive_component 	hdistance[4].proactive_component 	2.3536104806653
scalar abilene_nodelay_network.node[4].proactive_component 	downloads[4].proactive_component 	232199
scalar abilene_nodelay_network.node[4].proactive_component 	avg_time[4].proactive_component 	0
scalar abilene_nodelay_network.node[5].core_layer 	interests[5] 	479126
scalar abilene_nodelay_network.node[5].core_layer 	repo_load[5] 	215863
scalar abilene_nodelay_network.node[5].core_layer 	data[5] 	160411
scalar abilene_nodelay_network.node[5].core_layer 	slots_sent[face$o[1]->client[5]] 	123688082
scalar abilene_nodelay_network.node[5].core_layer 	slots_sent[face$o[2]->node[4]] 	53820867
scalar abilene_nodelay_network.node[5].core_layer 	slots_sent[face$o[3]->node[6]] 	40490357
scalar abilene_nodelay_network.node[5].content_store 	p_hit[5] 	0.18790673017119
scalar abilene_nodelay_network.node[5].content_store 	hits[5] 	90031
scalar abilene_nodelay_network.node[5].content_store 	misses[5] 	389095
scalar abilene_nodelay_network.node[5].content_store 	decision_yes[5] 	86204
scalar abilene_nodelay_network.node[5].content_store 	decision_no[5] 	290070
scalar abilene_nodelay_network.node[5].content_store 	decision_ratio[5] 	0.22909900763805
scalar abilene_nodelay_network.node[5].proactive_component 	hdistance[5].proactive_component 	2.244941653869
scalar abilene_nodelay_network.node[5].proactive_component 	downloads[5].proactive_component 	178418
scalar abilene_nodelay_network.node[5].proactive_component 	avg_time[5].proactive_component 	0
scalar abilene_nodelay_network.node[6].core_layer 	interests[6] 	563306
scalar abilene_nodelay_network.node[6].core_layer 	repo_load[6] 	231460
scalar abilene_nodelay_network.node[6].core_layer 	data[6] 	210753
scalar abilene_nodelay_network.node[6].core_layer 	slots_sent[face$o[1]->client[6]] 	115642021
scalar abilene_nodelay_network.node[6].core_layer 	slots_sent[face$o[2]->node[5]] 	44728350
scalar abilene_nodelay_network.node[6].core_layer 	slots_sent[face$o[3]->node[7]] 	84691755
scalar abilene_nodelay_network.node[6].content_store 	p_hit[6] 	0.15141681430697
scalar abilene_nodelay_network.node[6].content_store 	hits[6] 	85294
scalar abilene_nodelay_network.node[6].content_store 	misses[6] 	478012
scalar abilene_nodelay_network.node[6].content_store 	decision_yes[6] 	112060
scalar abilene_nodelay_network.node[6].content_store 	decision_no[6] 	330153
scalar abilene_nodelay_network.node[6].content_store 	decision_ratio[6] 	0.25340729467474
scalar abilene_nodelay_network.node[6].proactive_component 	hdistance[6].proactive_component 	2.1811255973646
scalar abilene_nodelay_network.node[6].proactive_component 	downloads[6].proactive_component 	215530
scalar abilene_nodelay_network.node[6].proactive_component 	avg_time[6].proactive_component 	0
scalar abilene_nodelay_network.node[7].core_layer 	interests[7] 	815717
scalar abilene_nodelay_network.node[7].core_layer 	repo_load[7] 	253858
scalar abilene_nodelay_network.node[7].core_layer 	data[7] 	360944
scalar abilene_nodelay_network.node[7].core_layer 	slots_sent[face$o[1]->client[7]] 	114350071
scalar abilene_nodelay_network.node[7].core_layer 	slots_sent[face$o[2]->node[3]] 	78453335
scalar abilene_nodelay_network.node[7].core_layer 	slots_sent[face$o[3]->node[6]] 	100152963
scalar abilene_nodelay_network.node[7].core_layer 	slots_sent[face$o[4]->node[8]] 	69157988
scalar abilene_nodelay_network.node[7].content_store 	p_hit[7] 	0.11636388600458
scalar abilene_nodelay_network.node[7].content_store 	hits[7] 	94920
scalar abilene_nodelay_network.node[7].content_store 	misses[7] 	720797
scalar abilene_nodelay_network.node[7].content_store 	decision_yes[7] 	189610
scalar abilene_nodelay_network.node[7].content_store 	decision_no[7] 	425192
scalar abilene_nodelay_network.node[7].content_store 	decision_ratio[7] 	0.30840823549696
scalar abilene_nodelay_network.node[7].proactive_component 	hdistance[7].proactive_component 	2.1672974429218
scalar abilene_nodelay_network.node[7].proactive_component 	downloads[7].proactive_component 	308086
scalar abilene_nodelay_network.node[7].proactive_component 	avg_time[7].proactive_component 	0
scalar abilene_nodelay_network.node[8].core_layer 	interests[8] 	772837
scalar abilene_nodelay_network.node[8].core_layer 	repo_load[8] 	241943
scalar abilene_nodelay_network.node[8].core_layer 	data[8] 	335771
scalar abilene_nodelay_network.node[8].core_layer 	slots_sent[face$o[1]->client[8]] 	122343622
scalar abilene_nodelay_network.node[8].core_layer 	slots_sent[face$o[2]->node[2]] 	71106990
scalar abilene_nodelay_network.node[8].core_layer 	slots_sent[face$o[3]->node[7]] 	69340201
scalar abilene_nodelay_network.node[8].core_layer 	slots_sent[face$o[4]->node[9]] 	90452970
scalar abilene_nodelay_network.node[8].content_store 	p_hit[8] 	0.1308671815661
scalar abilene_nodelay_network.node[8].content_store 	hits[8] 	101139
scalar abilene_nodelay_network.node[8].content_store 	misses[8] 	671698
scalar abilene_nodelay_network.node[8].content_store 	decision_yes[8] 	176597
scalar abilene_nodelay_network.node[8].content_store 	decision_no[8] 	401117
scalar abilene_nodelay_network.node[8].content_store 	decision_ratio[8] 	0.30568239647992
scalar abilene_nodelay_network.node[8].proactive_component 	hdistance[8].proactive_component 	2.1094027058347
scalar abilene_nodelay_network.node[8].proactive_component 	downloads[8].proactive_component 	286492
scalar abilene_nodelay_network.node[8].proactive_component 	avg_time[8].proactive_component 	0
scalar abilene_nodelay_network.node[9].core_layer 	interests[9] 	546626
scalar abilene_nodelay_network.node[9].core_layer 	repo_load[9] 	201261
scalar abilene_nodelay_network.node[9].core_layer 	data[9] 	210856
scalar abilene_nodelay_network.node[9].core_layer 	slots_sent[face$o[1]->client[9]] 	128889452
scalar abilene_nodelay_network.node[9].core_layer 	slots_sent[face$o[2]->node[10]] 	51476670
scalar abilene_nodelay_network.node[9].core_layer 	slots_sent[face$o[3]->node[8]] 	77228026
scalar abilene_nodelay_network.node[9].content_store 	p_hit[9] 	0.18096285211461
scalar abilene_nodelay_network.node[9].content_store 	hits[9] 	98919
scalar abilene_nodelay_network.node[9].content_store 	misses[9] 	447707
scalar abilene_nodelay_network.node[9].content_store 	decision_yes[9] 	111784
scalar abilene_nodelay_network.node[9].content_store 	decision_no[9] 	300333
scalar abilene_nodelay_network.node[9].content_store 	decision_ratio[9] 	0.27124336050199
scalar abilene_nodelay_network.node[9].proactive_component 	hdistance[9].proactive_component 	2.178601766264
scalar abilene_nodelay_network.node[9].proactive_component 	downloads[9].proactive_component 	198951
scalar abilene_nodelay_network.node[9].proactive_component 	avg_time[9].proactive_component 	0
scalar abilene_nodelay_network.node[10].core_layer 	interests[10] 	524771
scalar abilene_nodelay_network.node[10].core_layer 	repo_load[10] 	214556
scalar abilene_nodelay_network.node[10].core_layer 	data[10] 	185108
scalar abilene_nodelay_network.node[10].core_layer 	slots_sent[face$o[1]->client[10]] 	130440911
scalar abilene_nodelay_network.node[10].core_layer 	slots_sent[face$o[2]->node[0]] 	17963727
scalar abilene_nodelay_network.node[10].core_layer 	slots_sent[face$o[3]->node[1]] 	50955793
scalar abilene_nodelay_network.node[10].core_layer 	slots_sent[face$o[4]->node[9]] 	49906158
scalar abilene_nodelay_network.node[10].content_store 	p_hit[10] 	0.19066411825349
scalar abilene_nodelay_network.node[10].content_store 	hits[10] 	100055
scalar abilene_nodelay_network.node[10].content_store 	misses[10] 	424716
scalar abilene_nodelay_network.node[10].content_store 	decision_yes[10] 	98087
scalar abilene_nodelay_network.node[10].content_store 	decision_no[10] 	301577
scalar abilene_nodelay_network.node[10].content_store 	decision_ratio[10] 	0.24542365587093
scalar abilene_nodelay_network.node[10].proactive_component 	hdistance[10].proactive_component 	2.104278370315
scalar abilene_nodelay_network.node[10].proactive_component 	downloads[10].proactive_component 	190049
scalar abilene_nodelay_network.node[10].proactive_component 	avg_time[10].proactive_component 	0
scalar abilene_nodelay_network.client[0] 	hdistance[0].real 	1.4987000604236
scalar abilene_nodelay_network.client[0] 	downloads[0].real 	180393
scalar abilene_nodelay_network.client[0] 	avg_time[0].real 	0
scalar abilene_nodelay_network.client[1] 	hdistance[1].real 	1.3568692663729
scalar abilene_nodelay_network.client[1] 	downloads[1].real 	180405
scalar abilene_nodelay_network.client[1] 	avg_time[1].real 	0
scalar abilene_nodelay_network.client[2] 	hdistance[2].real 	1.2115856515047
scalar abilene_nodelay_network.client[2] 	downloads[2].real 	179308
scalar abilene_nodelay_network.client[2] 	avg_time[2].real 	0
scalar abilene_nodelay_network.client[3] 	hdistance[3].real 	1.2436063190487
scalar abilene_nodelay_network.client[3] 	downloads[3].real 	180217
scalar abilene_nodelay_network.client[3] 	avg_time[3].real 	0
scalar abilene_nodelay_network.client[4] 	hdistance[4].real 	1.4264901029955
scalar abilene_nodelay_network.client[4] 	downloads[4].real 	180105
scalar abilene_nodelay_network.client[4] 	avg_time[4].real 	0
scalar abilene_nodelay_network.client[5] 	hdistance[5].real 	1.5389814506276
scalar abilene_nodelay_network.client[5] 	downloads[5].real 	180060
scalar abilene_nodelay_network.client[5] 	avg_time[5].real 	0
scalar abilene_nodelay_network.client[6] 	hdistance[6].real 	1.5076228463797
scalar abilene_nodelay_network.client[6] 	downloads[6].real 	180510
scalar abilene_nodelay_network.client[6] 	avg_time[6].real 	0
scalar abilene_nodelay_network.client[7] 	hdistance[7].real 	1.3123634362091
scalar abilene_nodelay_network.client[7] 	downloads[7].real 	179861
scalar abilene_nodelay_network.client[7] 	avg_time[7].real 	0
scalar abilene_nodelay_network.client[8] 	hdistance[8].real 	1.2336012603107
scalar abilene_nodelay_network.client[8] 	downloads[8].real 	180273
scalar abilene_nodelay_network.client[8] 	avg_time[8].real 	0
scalar abilene_nodelay_network.client[9] 	hdistance[9].real 	1.3338527637408
scalar abilene_nodelay_network.client[9] 	downloads[9].real 	179684
scalar abilene_nodelay_network.client[9] 	avg_time[9].real 	0
scalar abilene_nodelay_network.client[10] 	hdistance[10].real 	1.3695294779842
scalar abilene_nodelay_network.client[10] 	downloads[10].real 	179439
scalar abilene_nodelay_network.client[10] 	avg_time[10].real 	0
