version 2
run General-3-20150724-11:05:40-27622
attr C 1e4
attr D lce
attr F spr
attr R partitionedn
attr a 1
attr brates 0.3_0.7_1.5_2.5_3.5
attr configname General
attr ctlg 1e6
attr datetime 20150724-11:05:40
attr experiment General
attr inifile omnetpp.ini
attr iterationvars "$net=barabasi_100nodes, $rep=3, $lambda=100, $a=1, $ctlg=1e6, $brates=0.3_0.7_1.5_2.5_3.5, $F=spr, $ttl=1000, $D=lce, $R=partitionedn, $C=1e4, $window=60, $variance=0.05, $mytime=1800"
attr iterationvars2 "$net=barabasi_100nodes, $rep=3, $lambda=100, $a=1, $ctlg=1e6, $brates=0.3_0.7_1.5_2.5_3.5, $F=spr, $ttl=1000, $D=lce, $R=partitionedn, $C=1e4, $window=60, $variance=0.05, $mytime=1800, $repetition=0"
attr lambda 100
attr measurement "$net=barabasi_100nodes, $rep=3, $lambda=100, $a=1, $ctlg=1e6, $brates=0.3_0.7_1.5_2.5_3.5, $F=spr, $ttl=1000, $D=lce, $R=partitionedn, $C=1e4, $window=60, $variance=0.05, $mytime=1800"
attr mytime 1800
attr net barabasi_100nodes
attr network networks.${net=barabasi_100nodes}_network
attr processid 27622
attr rep 3
attr repetition 0
attr replication #0
attr resultdir results
attr runnumber 3
attr seedset 3
attr ttl 1000
attr variance 0.05
attr window 60

scalar . 	C 	1e4
scalar . 	a 	1
scalar . 	ctlg 	1e6
scalar . 	lambda 	100
scalar . 	mytime 	1800
scalar . 	rep 	3
scalar . 	ttl 	1000
scalar . 	variance 	0.05
scalar . 	window 	60
scalar barabasi_100nodes_network.content_distribution 	repo-0 	9
scalar barabasi_100nodes_network.content_distribution 	repo-1 	15
scalar barabasi_100nodes_network.content_distribution 	repo-2 	64
scalar barabasi_100nodes_network.content_distribution 	repo-3 	28
scalar barabasi_100nodes_network.content_distribution 	repo-4 	89
scalar barabasi_100nodes_network.content_distribution 	repo-5 	93
scalar barabasi_100nodes_network.content_distribution 	repo-6 	29
scalar barabasi_100nodes_network.content_distribution 	repo-7 	8
scalar barabasi_100nodes_network.content_distribution 	repo-8 	73
scalar barabasi_100nodes_network.content_distribution 	repo-9 	0
scalar barabasi_100nodes_network.content_distribution 	repo-10 	40
scalar barabasi_100nodes_network.content_distribution 	repo-11 	36
scalar barabasi_100nodes_network.content_distribution 	repo-12 	16
scalar barabasi_100nodes_network.content_distribution 	repo-13 	11
scalar barabasi_100nodes_network.content_distribution 	repo-14 	54
scalar barabasi_100nodes_network.content_distribution 	repo-15 	88
scalar barabasi_100nodes_network.content_distribution 	repo-16 	62
scalar barabasi_100nodes_network.content_distribution 	repo-17 	33
scalar barabasi_100nodes_network.content_distribution 	repo-18 	72
scalar barabasi_100nodes_network.content_distribution 	repo-19 	78
scalar barabasi_100nodes_network.content_distribution 	repo-20 	49
scalar barabasi_100nodes_network.content_distribution 	repo-21 	51
scalar barabasi_100nodes_network.content_distribution 	repo-22 	77
scalar barabasi_100nodes_network.content_distribution 	repo-23 	69
scalar barabasi_100nodes_network.content_distribution 	repo-24 	13
scalar barabasi_100nodes_network.content_distribution 	repo-25 	25
scalar barabasi_100nodes_network.content_distribution 	repo-26 	92
scalar barabasi_100nodes_network.content_distribution 	repo-27 	86
scalar barabasi_100nodes_network.content_distribution 	repo-28 	30
scalar barabasi_100nodes_network.content_distribution 	repo-29 	12
scalar barabasi_100nodes_network.content_distribution 	repo-30 	65
scalar barabasi_100nodes_network.content_distribution 	repo-31 	31
scalar barabasi_100nodes_network.content_distribution 	repo-32 	57
scalar barabasi_100nodes_network.content_distribution 	repo-33 	27
scalar barabasi_100nodes_network.content_distribution 	repo-34 	18
scalar barabasi_100nodes_network.content_distribution 	repo-35 	22
scalar barabasi_100nodes_network.content_distribution 	repo-36 	23
scalar barabasi_100nodes_network.content_distribution 	repo-37 	94
scalar barabasi_100nodes_network.content_distribution 	repo-38 	74
scalar barabasi_100nodes_network.content_distribution 	repo-39 	80
scalar barabasi_100nodes_network.content_distribution 	repo-40 	71
scalar barabasi_100nodes_network.content_distribution 	repo-41 	17
scalar barabasi_100nodes_network.content_distribution 	repo-42 	46
scalar barabasi_100nodes_network.content_distribution 	repo-43 	7
scalar barabasi_100nodes_network.content_distribution 	repo-44 	75
scalar barabasi_100nodes_network.content_distribution 	repo-45 	84
scalar barabasi_100nodes_network.content_distribution 	repo-46 	96
scalar barabasi_100nodes_network.content_distribution 	repo-47 	44
scalar barabasi_100nodes_network.content_distribution 	repo-48 	5
scalar barabasi_100nodes_network.content_distribution 	repo-49 	4
scalar barabasi_100nodes_network.content_distribution 	repo-50 	50
scalar barabasi_100nodes_network.content_distribution 	repo-51 	34
scalar barabasi_100nodes_network.content_distribution 	repo-52 	6
scalar barabasi_100nodes_network.content_distribution 	repo-53 	85
scalar barabasi_100nodes_network.content_distribution 	repo-54 	79
scalar barabasi_100nodes_network.content_distribution 	repo-55 	42
scalar barabasi_100nodes_network.content_distribution 	repo-56 	97
scalar barabasi_100nodes_network.content_distribution 	repo-57 	45
scalar barabasi_100nodes_network.content_distribution 	repo-58 	37
scalar barabasi_100nodes_network.content_distribution 	repo-59 	3
scalar barabasi_100nodes_network.content_distribution 	repo-60 	82
scalar barabasi_100nodes_network.content_distribution 	repo-61 	14
scalar barabasi_100nodes_network.content_distribution 	repo-62 	53
scalar barabasi_100nodes_network.content_distribution 	repo-63 	48
scalar barabasi_100nodes_network.content_distribution 	repo-64 	32
scalar barabasi_100nodes_network.content_distribution 	repo-65 	81
scalar barabasi_100nodes_network.content_distribution 	repo-66 	41
scalar barabasi_100nodes_network.content_distribution 	repo-67 	90
scalar barabasi_100nodes_network.content_distribution 	repo-68 	38
scalar barabasi_100nodes_network.content_distribution 	repo-69 	66
scalar barabasi_100nodes_network.content_distribution 	repo-70 	67
scalar barabasi_100nodes_network.content_distribution 	repo-71 	95
scalar barabasi_100nodes_network.content_distribution 	repo-72 	99
scalar barabasi_100nodes_network.content_distribution 	repo-73 	21
scalar barabasi_100nodes_network.content_distribution 	repo-74 	43
scalar barabasi_100nodes_network.content_distribution 	repo-75 	87
scalar barabasi_100nodes_network.content_distribution 	repo-76 	39
scalar barabasi_100nodes_network.content_distribution 	repo-77 	91
scalar barabasi_100nodes_network.content_distribution 	repo-78 	52
scalar barabasi_100nodes_network.content_distribution 	repo-79 	76
scalar barabasi_100nodes_network.content_distribution 	repo-80 	68
scalar barabasi_100nodes_network.content_distribution 	repo-81 	70
scalar barabasi_100nodes_network.content_distribution 	repo-82 	2
scalar barabasi_100nodes_network.content_distribution 	repo-83 	58
scalar barabasi_100nodes_network.content_distribution 	repo-84 	1
scalar barabasi_100nodes_network.content_distribution 	repo-85 	63
scalar barabasi_100nodes_network.content_distribution 	repo-86 	83
scalar barabasi_100nodes_network.content_distribution 	repo-87 	55
scalar barabasi_100nodes_network.content_distribution 	repo-88 	20
scalar barabasi_100nodes_network.content_distribution 	repo-89 	60
scalar barabasi_100nodes_network.content_distribution 	repo-90 	61
scalar barabasi_100nodes_network.content_distribution 	repo-91 	19
scalar barabasi_100nodes_network.content_distribution 	repo-92 	35
scalar barabasi_100nodes_network.content_distribution 	repo-93 	10
scalar barabasi_100nodes_network.content_distribution 	repo-94 	59
scalar barabasi_100nodes_network.content_distribution 	repo-95 	98
scalar barabasi_100nodes_network.content_distribution 	repo-96 	56
scalar barabasi_100nodes_network.content_distribution 	repo-97 	26
scalar barabasi_100nodes_network.content_distribution 	repo-98 	47
scalar barabasi_100nodes_network.content_distribution 	repo-99 	24
scalar barabasi_100nodes_network.content_distribution 	client-0 	72
scalar barabasi_100nodes_network.content_distribution 	client-1 	54
scalar barabasi_100nodes_network.content_distribution 	client-2 	80
scalar barabasi_100nodes_network.content_distribution 	client-3 	21
scalar barabasi_100nodes_network.content_distribution 	client-4 	19
scalar barabasi_100nodes_network.content_distribution 	client-5 	95
scalar barabasi_100nodes_network.content_distribution 	client-6 	3
scalar barabasi_100nodes_network.content_distribution 	client-7 	98
scalar barabasi_100nodes_network.content_distribution 	client-8 	25
scalar barabasi_100nodes_network.content_distribution 	client-9 	41
scalar barabasi_100nodes_network.content_distribution 	client-10 	14
scalar barabasi_100nodes_network.content_distribution 	client-11 	73
scalar barabasi_100nodes_network.content_distribution 	client-12 	71
scalar barabasi_100nodes_network.content_distribution 	client-13 	38
scalar barabasi_100nodes_network.content_distribution 	client-14 	49
scalar barabasi_100nodes_network.content_distribution 	client-15 	22
scalar barabasi_100nodes_network.content_distribution 	client-16 	97
scalar barabasi_100nodes_network.content_distribution 	client-17 	47
scalar barabasi_100nodes_network.content_distribution 	client-18 	31
scalar barabasi_100nodes_network.content_distribution 	client-19 	46
scalar barabasi_100nodes_network.content_distribution 	client-20 	5
scalar barabasi_100nodes_network.content_distribution 	client-21 	76
scalar barabasi_100nodes_network.content_distribution 	client-22 	16
scalar barabasi_100nodes_network.content_distribution 	client-23 	92
scalar barabasi_100nodes_network.content_distribution 	client-24 	20
scalar barabasi_100nodes_network.content_distribution 	client-25 	82
scalar barabasi_100nodes_network.content_distribution 	client-26 	9
scalar barabasi_100nodes_network.content_distribution 	client-27 	56
scalar barabasi_100nodes_network.content_distribution 	client-28 	37
scalar barabasi_100nodes_network.content_distribution 	client-29 	6
scalar barabasi_100nodes_network.content_distribution 	client-30 	30
scalar barabasi_100nodes_network.content_distribution 	client-31 	67
scalar barabasi_100nodes_network.content_distribution 	client-32 	70
scalar barabasi_100nodes_network.content_distribution 	client-33 	53
scalar barabasi_100nodes_network.content_distribution 	client-34 	13
scalar barabasi_100nodes_network.content_distribution 	client-35 	10
scalar barabasi_100nodes_network.content_distribution 	client-36 	60
scalar barabasi_100nodes_network.content_distribution 	client-37 	33
scalar barabasi_100nodes_network.content_distribution 	client-38 	42
scalar barabasi_100nodes_network.content_distribution 	client-39 	0
scalar barabasi_100nodes_network.content_distribution 	client-40 	88
scalar barabasi_100nodes_network.content_distribution 	client-41 	36
scalar barabasi_100nodes_network.content_distribution 	client-42 	87
scalar barabasi_100nodes_network.content_distribution 	client-43 	66
scalar barabasi_100nodes_network.content_distribution 	client-44 	55
scalar barabasi_100nodes_network.content_distribution 	client-45 	17
scalar barabasi_100nodes_network.content_distribution 	client-46 	1
scalar barabasi_100nodes_network.content_distribution 	client-47 	51
scalar barabasi_100nodes_network.content_distribution 	client-48 	77
scalar barabasi_100nodes_network.content_distribution 	client-49 	7
scalar barabasi_100nodes_network.content_distribution 	client-50 	26
scalar barabasi_100nodes_network.content_distribution 	client-51 	58
scalar barabasi_100nodes_network.content_distribution 	client-52 	90
scalar barabasi_100nodes_network.content_distribution 	client-53 	40
scalar barabasi_100nodes_network.content_distribution 	client-54 	2
scalar barabasi_100nodes_network.content_distribution 	client-55 	23
scalar barabasi_100nodes_network.content_distribution 	client-56 	65
scalar barabasi_100nodes_network.content_distribution 	client-57 	4
scalar barabasi_100nodes_network.content_distribution 	client-58 	78
scalar barabasi_100nodes_network.content_distribution 	client-59 	99
scalar barabasi_100nodes_network.content_distribution 	client-60 	59
scalar barabasi_100nodes_network.content_distribution 	client-61 	86
scalar barabasi_100nodes_network.content_distribution 	client-62 	44
scalar barabasi_100nodes_network.content_distribution 	client-63 	35
scalar barabasi_100nodes_network.content_distribution 	client-64 	57
scalar barabasi_100nodes_network.content_distribution 	client-65 	52
scalar barabasi_100nodes_network.content_distribution 	client-66 	29
scalar barabasi_100nodes_network.content_distribution 	client-67 	32
scalar barabasi_100nodes_network.content_distribution 	client-68 	84
scalar barabasi_100nodes_network.content_distribution 	client-69 	75
scalar barabasi_100nodes_network.content_distribution 	client-70 	12
scalar barabasi_100nodes_network.content_distribution 	client-71 	96
scalar barabasi_100nodes_network.content_distribution 	client-72 	39
scalar barabasi_100nodes_network.content_distribution 	client-73 	69
scalar barabasi_100nodes_network.content_distribution 	client-74 	24
scalar barabasi_100nodes_network.content_distribution 	client-75 	83
scalar barabasi_100nodes_network.content_distribution 	client-76 	15
scalar barabasi_100nodes_network.content_distribution 	client-77 	63
scalar barabasi_100nodes_network.content_distribution 	client-78 	79
scalar barabasi_100nodes_network.content_distribution 	client-79 	89
scalar barabasi_100nodes_network.content_distribution 	client-80 	94
scalar barabasi_100nodes_network.content_distribution 	client-81 	18
scalar barabasi_100nodes_network.content_distribution 	client-82 	74
scalar barabasi_100nodes_network.content_distribution 	client-83 	62
scalar barabasi_100nodes_network.content_distribution 	client-84 	93
scalar barabasi_100nodes_network.content_distribution 	client-85 	48
scalar barabasi_100nodes_network.content_distribution 	client-86 	64
scalar barabasi_100nodes_network.content_distribution 	client-87 	8
scalar barabasi_100nodes_network.content_distribution 	client-88 	85
scalar barabasi_100nodes_network.content_distribution 	client-89 	81
scalar barabasi_100nodes_network.content_distribution 	client-90 	28
scalar barabasi_100nodes_network.content_distribution 	client-91 	34
scalar barabasi_100nodes_network.content_distribution 	client-92 	45
scalar barabasi_100nodes_network.content_distribution 	client-93 	68
scalar barabasi_100nodes_network.content_distribution 	client-94 	43
scalar barabasi_100nodes_network.content_distribution 	client-95 	91
scalar barabasi_100nodes_network.content_distribution 	client-96 	50
scalar barabasi_100nodes_network.content_distribution 	client-97 	27
scalar barabasi_100nodes_network.content_distribution 	client-98 	61
scalar barabasi_100nodes_network.content_distribution 	client-99 	11
scalar barabasi_100nodes_network.content_distribution 	repo-0_card 	250071
scalar barabasi_100nodes_network.content_distribution 	repo-0_price 	0
scalar barabasi_100nodes_network.content_distribution 	repo-1_card 	250237
scalar barabasi_100nodes_network.content_distribution 	repo-1_price 	0
scalar barabasi_100nodes_network.content_distribution 	repo-2_card 	249820
scalar barabasi_100nodes_network.content_distribution 	repo-2_price 	0
scalar barabasi_100nodes_network.content_distribution 	repo-3_card 	249872
scalar barabasi_100nodes_network.content_distribution 	repo-3_price 	0
scalar barabasi_100nodes_network.content_distribution 	repo-4_card 	0
scalar barabasi_100nodes_network.content_distribution 	repo-4_price 	0
scalar barabasi_100nodes_network.content_distribution 	repo-5_card 	0
scalar barabasi_100nodes_network.content_distribution 	repo-5_price 	0
scalar barabasi_100nodes_network.content_distribution 	repo-6_card 	0
scalar barabasi_100nodes_network.content_distribution 	repo-6_price 	0
scalar barabasi_100nodes_network.content_distribution 	repo-7_card 	0
scalar barabasi_100nodes_network.content_distribution 	repo-7_price 	0
scalar barabasi_100nodes_network.content_distribution 	repo-8_card 	0
scalar barabasi_100nodes_network.content_distribution 	repo-8_price 	0
scalar barabasi_100nodes_network.content_distribution 	repo-9_card 	0
scalar barabasi_100nodes_network.content_distribution 	repo-9_price 	0
scalar barabasi_100nodes_network.content_distribution 	repo-10_card 	0
scalar barabasi_100nodes_network.content_distribution 	repo-10_price 	0
scalar barabasi_100nodes_network.content_distribution 	repo-11_card 	0
scalar barabasi_100nodes_network.content_distribution 	repo-11_price 	0
scalar barabasi_100nodes_network.content_distribution 	repo-12_card 	0
scalar barabasi_100nodes_network.content_distribution 	repo-12_price 	0
scalar barabasi_100nodes_network.content_distribution 	repo-13_card 	0
scalar barabasi_100nodes_network.content_distribution 	repo-13_price 	0
scalar barabasi_100nodes_network.content_distribution 	repo-14_card 	0
scalar barabasi_100nodes_network.content_distribution 	repo-14_price 	0
scalar barabasi_100nodes_network.content_distribution 	repo-15_card 	0
scalar barabasi_100nodes_network.content_distribution 	repo-15_price 	0
scalar barabasi_100nodes_network.content_distribution 	repo-16_card 	0
scalar barabasi_100nodes_network.content_distribution 	repo-16_price 	0
scalar barabasi_100nodes_network.content_distribution 	repo-17_card 	0
scalar barabasi_100nodes_network.content_distribution 	repo-17_price 	0
scalar barabasi_100nodes_network.content_distribution 	repo-18_card 	0
scalar barabasi_100nodes_network.content_distribution 	repo-18_price 	0
scalar barabasi_100nodes_network.content_distribution 	repo-19_card 	0
scalar barabasi_100nodes_network.content_distribution 	repo-19_price 	0
scalar barabasi_100nodes_network.content_distribution 	repo-20_card 	0
scalar barabasi_100nodes_network.content_distribution 	repo-20_price 	0
scalar barabasi_100nodes_network.content_distribution 	repo-21_card 	0
scalar barabasi_100nodes_network.content_distribution 	repo-21_price 	0
scalar barabasi_100nodes_network.content_distribution 	repo-22_card 	0
scalar barabasi_100nodes_network.content_distribution 	repo-22_price 	0
scalar barabasi_100nodes_network.content_distribution 	repo-23_card 	0
scalar barabasi_100nodes_network.content_distribution 	repo-23_price 	0
scalar barabasi_100nodes_network.content_distribution 	repo-24_card 	0
scalar barabasi_100nodes_network.content_distribution 	repo-24_price 	0
scalar barabasi_100nodes_network.content_distribution 	repo-25_card 	0
scalar barabasi_100nodes_network.content_distribution 	repo-25_price 	0
scalar barabasi_100nodes_network.content_distribution 	repo-26_card 	0
scalar barabasi_100nodes_network.content_distribution 	repo-26_price 	0
scalar barabasi_100nodes_network.content_distribution 	repo-27_card 	0
scalar barabasi_100nodes_network.content_distribution 	repo-27_price 	0
scalar barabasi_100nodes_network.content_distribution 	repo-28_card 	0
scalar barabasi_100nodes_network.content_distribution 	repo-28_price 	0
scalar barabasi_100nodes_network.content_distribution 	repo-29_card 	0
scalar barabasi_100nodes_network.content_distribution 	repo-29_price 	0
scalar barabasi_100nodes_network.content_distribution 	repo-30_card 	0
scalar barabasi_100nodes_network.content_distribution 	repo-30_price 	0
scalar barabasi_100nodes_network.content_distribution 	repo-31_card 	0
scalar barabasi_100nodes_network.content_distribution 	repo-31_price 	0
scalar barabasi_100nodes_network.content_distribution 	repo-32_card 	0
scalar barabasi_100nodes_network.content_distribution 	repo-32_price 	0
scalar barabasi_100nodes_network.content_distribution 	repo-33_card 	0
scalar barabasi_100nodes_network.content_distribution 	repo-33_price 	0
scalar barabasi_100nodes_network.content_distribution 	repo-34_card 	0
scalar barabasi_100nodes_network.content_distribution 	repo-34_price 	0
scalar barabasi_100nodes_network.content_distribution 	repo-35_card 	0
scalar barabasi_100nodes_network.content_distribution 	repo-35_price 	0
scalar barabasi_100nodes_network.content_distribution 	repo-36_card 	0
scalar barabasi_100nodes_network.content_distribution 	repo-36_price 	0
scalar barabasi_100nodes_network.content_distribution 	repo-37_card 	0
scalar barabasi_100nodes_network.content_distribution 	repo-37_price 	0
scalar barabasi_100nodes_network.content_distribution 	repo-38_card 	0
scalar barabasi_100nodes_network.content_distribution 	repo-38_price 	0
scalar barabasi_100nodes_network.content_distribution 	repo-39_card 	0
scalar barabasi_100nodes_network.content_distribution 	repo-39_price 	0
scalar barabasi_100nodes_network.content_distribution 	repo-40_card 	0
scalar barabasi_100nodes_network.content_distribution 	repo-40_price 	0
scalar barabasi_100nodes_network.content_distribution 	repo-41_card 	0
scalar barabasi_100nodes_network.content_distribution 	repo-41_price 	0
scalar barabasi_100nodes_network.content_distribution 	repo-42_card 	0
scalar barabasi_100nodes_network.content_distribution 	repo-42_price 	0
scalar barabasi_100nodes_network.content_distribution 	repo-43_card 	0
scalar barabasi_100nodes_network.content_distribution 	repo-43_price 	0
scalar barabasi_100nodes_network.content_distribution 	repo-44_card 	0
scalar barabasi_100nodes_network.content_distribution 	repo-44_price 	0
scalar barabasi_100nodes_network.content_distribution 	repo-45_card 	0
scalar barabasi_100nodes_network.content_distribution 	repo-45_price 	0
scalar barabasi_100nodes_network.content_distribution 	repo-46_card 	0
scalar barabasi_100nodes_network.content_distribution 	repo-46_price 	0
scalar barabasi_100nodes_network.content_distribution 	repo-47_card 	0
scalar barabasi_100nodes_network.content_distribution 	repo-47_price 	0
scalar barabasi_100nodes_network.content_distribution 	repo-48_card 	0
scalar barabasi_100nodes_network.content_distribution 	repo-48_price 	0
scalar barabasi_100nodes_network.content_distribution 	repo-49_card 	0
scalar barabasi_100nodes_network.content_distribution 	repo-49_price 	0
scalar barabasi_100nodes_network.content_distribution 	repo-50_card 	0
scalar barabasi_100nodes_network.content_distribution 	repo-50_price 	0
scalar barabasi_100nodes_network.content_distribution 	repo-51_card 	0
scalar barabasi_100nodes_network.content_distribution 	repo-51_price 	0
scalar barabasi_100nodes_network.content_distribution 	repo-52_card 	0
scalar barabasi_100nodes_network.content_distribution 	repo-52_price 	0
scalar barabasi_100nodes_network.content_distribution 	repo-53_card 	0
scalar barabasi_100nodes_network.content_distribution 	repo-53_price 	0
scalar barabasi_100nodes_network.content_distribution 	repo-54_card 	0
scalar barabasi_100nodes_network.content_distribution 	repo-54_price 	0
scalar barabasi_100nodes_network.content_distribution 	repo-55_card 	0
scalar barabasi_100nodes_network.content_distribution 	repo-55_price 	0
scalar barabasi_100nodes_network.content_distribution 	repo-56_card 	0
scalar barabasi_100nodes_network.content_distribution 	repo-56_price 	0
scalar barabasi_100nodes_network.content_distribution 	repo-57_card 	0
scalar barabasi_100nodes_network.content_distribution 	repo-57_price 	0
scalar barabasi_100nodes_network.content_distribution 	repo-58_card 	0
scalar barabasi_100nodes_network.content_distribution 	repo-58_price 	0
scalar barabasi_100nodes_network.content_distribution 	repo-59_card 	0
scalar barabasi_100nodes_network.content_distribution 	repo-59_price 	0
scalar barabasi_100nodes_network.content_distribution 	repo-60_card 	0
scalar barabasi_100nodes_network.content_distribution 	repo-60_price 	0
scalar barabasi_100nodes_network.content_distribution 	repo-61_card 	0
scalar barabasi_100nodes_network.content_distribution 	repo-61_price 	0
scalar barabasi_100nodes_network.content_distribution 	repo-62_card 	0
scalar barabasi_100nodes_network.content_distribution 	repo-62_price 	0
scalar barabasi_100nodes_network.content_distribution 	repo-63_card 	0
scalar barabasi_100nodes_network.content_distribution 	repo-63_price 	0
scalar barabasi_100nodes_network.content_distribution 	repo-64_card 	0
scalar barabasi_100nodes_network.content_distribution 	repo-64_price 	0
scalar barabasi_100nodes_network.content_distribution 	repo-65_card 	0
scalar barabasi_100nodes_network.content_distribution 	repo-65_price 	0
scalar barabasi_100nodes_network.content_distribution 	repo-66_card 	0
scalar barabasi_100nodes_network.content_distribution 	repo-66_price 	0
scalar barabasi_100nodes_network.content_distribution 	repo-67_card 	0
scalar barabasi_100nodes_network.content_distribution 	repo-67_price 	0
scalar barabasi_100nodes_network.content_distribution 	repo-68_card 	0
scalar barabasi_100nodes_network.content_distribution 	repo-68_price 	0
scalar barabasi_100nodes_network.content_distribution 	repo-69_card 	0
scalar barabasi_100nodes_network.content_distribution 	repo-69_price 	0
scalar barabasi_100nodes_network.content_distribution 	repo-70_card 	0
scalar barabasi_100nodes_network.content_distribution 	repo-70_price 	0
scalar barabasi_100nodes_network.content_distribution 	repo-71_card 	0
scalar barabasi_100nodes_network.content_distribution 	repo-71_price 	0
scalar barabasi_100nodes_network.content_distribution 	repo-72_card 	0
scalar barabasi_100nodes_network.content_distribution 	repo-72_price 	0
scalar barabasi_100nodes_network.content_distribution 	repo-73_card 	0
scalar barabasi_100nodes_network.content_distribution 	repo-73_price 	0
scalar barabasi_100nodes_network.content_distribution 	repo-74_card 	0
scalar barabasi_100nodes_network.content_distribution 	repo-74_price 	0
scalar barabasi_100nodes_network.content_distribution 	repo-75_card 	0
scalar barabasi_100nodes_network.content_distribution 	repo-75_price 	0
scalar barabasi_100nodes_network.content_distribution 	repo-76_card 	0
scalar barabasi_100nodes_network.content_distribution 	repo-76_price 	0
scalar barabasi_100nodes_network.content_distribution 	repo-77_card 	0
scalar barabasi_100nodes_network.content_distribution 	repo-77_price 	0
scalar barabasi_100nodes_network.content_distribution 	repo-78_card 	0
scalar barabasi_100nodes_network.content_distribution 	repo-78_price 	0
scalar barabasi_100nodes_network.content_distribution 	repo-79_card 	0
scalar barabasi_100nodes_network.content_distribution 	repo-79_price 	0
scalar barabasi_100nodes_network.content_distribution 	repo-80_card 	0
scalar barabasi_100nodes_network.content_distribution 	repo-80_price 	0
scalar barabasi_100nodes_network.content_distribution 	repo-81_card 	0
scalar barabasi_100nodes_network.content_distribution 	repo-81_price 	0
scalar barabasi_100nodes_network.content_distribution 	repo-82_card 	0
scalar barabasi_100nodes_network.content_distribution 	repo-82_price 	0
scalar barabasi_100nodes_network.content_distribution 	repo-83_card 	0
scalar barabasi_100nodes_network.content_distribution 	repo-83_price 	0
scalar barabasi_100nodes_network.content_distribution 	repo-84_card 	0
scalar barabasi_100nodes_network.content_distribution 	repo-84_price 	0
scalar barabasi_100nodes_network.content_distribution 	repo-85_card 	0
scalar barabasi_100nodes_network.content_distribution 	repo-85_price 	0
scalar barabasi_100nodes_network.content_distribution 	repo-86_card 	0
scalar barabasi_100nodes_network.content_distribution 	repo-86_price 	0
scalar barabasi_100nodes_network.content_distribution 	repo-87_card 	0
scalar barabasi_100nodes_network.content_distribution 	repo-87_price 	0
scalar barabasi_100nodes_network.content_distribution 	repo-88_card 	0
scalar barabasi_100nodes_network.content_distribution 	repo-88_price 	0
scalar barabasi_100nodes_network.content_distribution 	repo-89_card 	0
scalar barabasi_100nodes_network.content_distribution 	repo-89_price 	0
scalar barabasi_100nodes_network.content_distribution 	repo-90_card 	0
scalar barabasi_100nodes_network.content_distribution 	repo-90_price 	0
scalar barabasi_100nodes_network.content_distribution 	repo-91_card 	0
scalar barabasi_100nodes_network.content_distribution 	repo-91_price 	0
scalar barabasi_100nodes_network.content_distribution 	repo-92_card 	0
scalar barabasi_100nodes_network.content_distribution 	repo-92_price 	0
scalar barabasi_100nodes_network.content_distribution 	repo-93_card 	0
scalar barabasi_100nodes_network.content_distribution 	repo-93_price 	0
scalar barabasi_100nodes_network.content_distribution 	repo-94_card 	0
scalar barabasi_100nodes_network.content_distribution 	repo-94_price 	0
scalar barabasi_100nodes_network.content_distribution 	repo-95_card 	0
scalar barabasi_100nodes_network.content_distribution 	repo-95_price 	0
scalar barabasi_100nodes_network.content_distribution 	repo-96_card 	0
scalar barabasi_100nodes_network.content_distribution 	repo-96_price 	0
scalar barabasi_100nodes_network.content_distribution 	repo-97_card 	0
scalar barabasi_100nodes_network.content_distribution 	repo-97_price 	0
scalar barabasi_100nodes_network.content_distribution 	repo-98_card 	0
scalar barabasi_100nodes_network.content_distribution 	repo-98_price 	0
scalar barabasi_100nodes_network.content_distribution 	repo-99_card 	0
scalar barabasi_100nodes_network.content_distribution 	repo-99_price 	0
scalar barabasi_100nodes_network.statistics 	stabilization_time 	36060
scalar barabasi_100nodes_network.statistics 	p_hit 	0.29188634591537
scalar barabasi_100nodes_network.statistics 	interests 	474578.28
scalar barabasi_100nodes_network.statistics 	data 	264876.72
scalar barabasi_100nodes_network.statistics 	hdistance 	1.4152916338034
scalar barabasi_100nodes_network.statistics 	avg_time 	0
scalar barabasi_100nodes_network.statistics 	downloads 	18000271
scalar barabasi_100nodes_network.statistics 	total_cost 	0
scalar barabasi_100nodes_network.statistics 	total_replicas 	1000000
scalar barabasi_100nodes_network.statistics 	"representations_downloaded 0.313921:0.0339737:0.0371912:0.0470114:0.567902:" 	0
scalar barabasi_100nodes_network.statistics 	"slots_per_representation 100:233:500:833:1167:" 	0
scalar barabasi_100nodes_network.statistics 	inner_hit 	0.60456906454353
scalar barabasi_100nodes_network.statistics 	execution_time 	21679
scalar barabasi_100nodes_network.node[0].core_layer 	interests[0] 	5913688
scalar barabasi_100nodes_network.node[0].core_layer 	data[0] 	5245078
scalar barabasi_100nodes_network.node[0].core_layer 	slots_sent[face$o[1]->client[0]] 	114977611
scalar barabasi_100nodes_network.node[0].core_layer 	slots_sent[face$o[2]->node[1]] 	30529622
scalar barabasi_100nodes_network.node[0].core_layer 	slots_sent[face$o[3]->node[2]] 	1270099895
scalar barabasi_100nodes_network.node[0].core_layer 	slots_sent[face$o[4]->node[5]] 	99398947
scalar barabasi_100nodes_network.node[0].core_layer 	slots_sent[face$o[5]->node[10]] 	58817136
scalar barabasi_100nodes_network.node[0].core_layer 	slots_sent[face$o[6]->node[11]] 	30679422
scalar barabasi_100nodes_network.node[0].core_layer 	slots_sent[face$o[7]->node[15]] 	56406243
scalar barabasi_100nodes_network.node[0].core_layer 	slots_sent[face$o[8]->node[21]] 	72155937
scalar barabasi_100nodes_network.node[0].core_layer 	slots_sent[face$o[9]->node[22]] 	21890905
scalar barabasi_100nodes_network.node[0].core_layer 	slots_sent[face$o[10]->node[28]] 	21643790
scalar barabasi_100nodes_network.node[0].core_layer 	slots_sent[face$o[11]->node[37]] 	30670818
scalar barabasi_100nodes_network.node[0].core_layer 	slots_sent[face$o[12]->node[44]] 	30904246
scalar barabasi_100nodes_network.node[0].core_layer 	slots_sent[face$o[13]->node[58]] 	59735395
scalar barabasi_100nodes_network.node[0].core_layer 	slots_sent[face$o[14]->node[73]] 	59067262
scalar barabasi_100nodes_network.node[0].core_layer 	slots_sent[face$o[15]->node[74]] 	31085320
scalar barabasi_100nodes_network.node[0].core_layer 	slots_sent[face$o[16]->node[93]] 	30858869
scalar barabasi_100nodes_network.node[0].content_store 	p_hit[0] 	0.11306142630453
scalar barabasi_100nodes_network.node[0].content_store 	hits[0] 	668610
scalar barabasi_100nodes_network.node[0].content_store 	misses[0] 	5245078
scalar barabasi_100nodes_network.node[0].content_store 	decision_yes[0] 	5245078
scalar barabasi_100nodes_network.node[0].content_store 	decision_no[0] 	0
scalar barabasi_100nodes_network.node[0].content_store 	decision_ratio[0] 	1
scalar barabasi_100nodes_network.node[0].content_store 	"representation_breakdown[0] 0x7fff05a90168:0x7fff05a90168:0x7fff05a90168:0x7fff05a90168:0x7fff05a90168:" 	0
scalar barabasi_100nodes_network.node[0].proactive_component 	hdistance[0].proactive_component 	2.0598728173513
scalar barabasi_100nodes_network.node[0].proactive_component 	downloads[0].proactive_component 	7313419
scalar barabasi_100nodes_network.node[0].proactive_component 	avg_time[0].proactive_component 	0
scalar barabasi_100nodes_network.node[1].core_layer 	interests[1] 	194080
scalar barabasi_100nodes_network.node[1].core_layer 	data[1] 	80783
scalar barabasi_100nodes_network.node[1].core_layer 	slots_sent[face$o[1]->client[1]] 	141151873
scalar barabasi_100nodes_network.node[1].core_layer 	slots_sent[face$o[2]->node[0]] 	0
scalar barabasi_100nodes_network.node[1].content_store 	p_hit[1] 	0.5837644270404
scalar barabasi_100nodes_network.node[1].content_store 	hits[1] 	113297
scalar barabasi_100nodes_network.node[1].content_store 	misses[1] 	80783
scalar barabasi_100nodes_network.node[1].content_store 	decision_yes[1] 	80783
scalar barabasi_100nodes_network.node[1].content_store 	decision_no[1] 	0
scalar barabasi_100nodes_network.node[1].content_store 	decision_ratio[1] 	1
scalar barabasi_100nodes_network.node[1].content_store 	"representation_breakdown[1] 0x7fff05a90168:0x7fff05a90168:0x7fff05a90168:0x7fff05a90168:0x7fff05a90168:" 	0
scalar barabasi_100nodes_network.node[1].proactive_component 	hdistance[1].proactive_component 	2.6578424352504
scalar barabasi_100nodes_network.node[1].proactive_component 	downloads[1].proactive_component 	286295
scalar barabasi_100nodes_network.node[1].proactive_component 	avg_time[1].proactive_component 	0
scalar barabasi_100nodes_network.node[2].core_layer 	interests[2] 	6152696
scalar barabasi_100nodes_network.node[2].core_layer 	data[2] 	5170641
scalar barabasi_100nodes_network.node[2].core_layer 	slots_sent[face$o[1]->client[2]] 	118886245
scalar barabasi_100nodes_network.node[2].core_layer 	slots_sent[face$o[2]->node[0]] 	193830235
scalar barabasi_100nodes_network.node[2].core_layer 	slots_sent[face$o[3]->node[3]] 	59660734
scalar barabasi_100nodes_network.node[2].core_layer 	slots_sent[face$o[4]->node[4]] 	156148742
scalar barabasi_100nodes_network.node[2].core_layer 	slots_sent[face$o[5]->node[6]] 	31152796
scalar barabasi_100nodes_network.node[2].core_layer 	slots_sent[face$o[6]->node[7]] 	363378652
scalar barabasi_100nodes_network.node[2].core_layer 	slots_sent[face$o[7]->node[8]] 	226015906
scalar barabasi_100nodes_network.node[2].core_layer 	slots_sent[face$o[8]->node[13]] 	136314693
scalar barabasi_100nodes_network.node[2].core_layer 	slots_sent[face$o[9]->node[16]] 	196925830
scalar barabasi_100nodes_network.node[2].core_layer 	slots_sent[face$o[10]->node[18]] 	80237372
scalar barabasi_100nodes_network.node[2].core_layer 	slots_sent[face$o[11]->node[25]] 	59583300
scalar barabasi_100nodes_network.node[2].core_layer 	slots_sent[face$o[12]->node[26]] 	85061393
scalar barabasi_100nodes_network.node[2].core_layer 	slots_sent[face$o[13]->node[29]] 	31393012
scalar barabasi_100nodes_network.node[2].core_layer 	slots_sent[face$o[14]->node[32]] 	49492915
scalar barabasi_100nodes_network.node[2].core_layer 	slots_sent[face$o[15]->node[33]] 	30900146
scalar barabasi_100nodes_network.node[2].core_layer 	slots_sent[face$o[16]->node[34]] 	30998130
scalar barabasi_100nodes_network.node[2].core_layer 	slots_sent[face$o[17]->node[36]] 	59633610
scalar barabasi_100nodes_network.node[2].core_layer 	slots_sent[face$o[18]->node[41]] 	137225861
scalar barabasi_100nodes_network.node[2].core_layer 	slots_sent[face$o[19]->node[45]] 	31107938
scalar barabasi_100nodes_network.node[2].core_layer 	slots_sent[face$o[20]->node[59]] 	30780333
scalar barabasi_100nodes_network.node[2].core_layer 	slots_sent[face$o[21]->node[62]] 	87057412
scalar barabasi_100nodes_network.node[2].core_layer 	slots_sent[face$o[22]->node[79]] 	31008962
scalar barabasi_100nodes_network.node[2].content_store 	p_hit[2] 	0.15961376931348
scalar barabasi_100nodes_network.node[2].content_store 	hits[2] 	982055
scalar barabasi_100nodes_network.node[2].content_store 	misses[2] 	5170641
scalar barabasi_100nodes_network.node[2].content_store 	decision_yes[2] 	5170641
scalar barabasi_100nodes_network.node[2].content_store 	decision_no[2] 	0
scalar barabasi_100nodes_network.node[2].content_store 	decision_ratio[2] 	1
scalar barabasi_100nodes_network.node[2].content_store 	"representation_breakdown[2] 0x7fff05a90168:0x7fff05a90168:0x7fff05a90168:0x7fff05a90168:0x7fff05a90168:" 	0
scalar barabasi_100nodes_network.node[2].proactive_component 	hdistance[2].proactive_component 	2.4069096835338
scalar barabasi_100nodes_network.node[2].proactive_component 	downloads[2].proactive_component 	10514085
scalar barabasi_100nodes_network.node[2].proactive_component 	avg_time[2].proactive_component 	0
scalar barabasi_100nodes_network.node[3].core_layer 	interests[3] 	280161
scalar barabasi_100nodes_network.node[3].core_layer 	data[3] 	155887
scalar barabasi_100nodes_network.node[3].core_layer 	slots_sent[face$o[1]->client[3]] 	140134160
scalar barabasi_100nodes_network.node[3].core_layer 	slots_sent[face$o[2]->node[2]] 	0
scalar barabasi_100nodes_network.node[3].core_layer 	slots_sent[face$o[3]->node[52]] 	32100802
scalar barabasi_100nodes_network.node[3].content_store 	p_hit[3] 	0.44358065540885
scalar barabasi_100nodes_network.node[3].content_store 	hits[3] 	124274
scalar barabasi_100nodes_network.node[3].content_store 	misses[3] 	155887
scalar barabasi_100nodes_network.node[3].content_store 	decision_yes[3] 	155887
scalar barabasi_100nodes_network.node[3].content_store 	decision_no[3] 	0
scalar barabasi_100nodes_network.node[3].content_store 	decision_ratio[3] 	1
scalar barabasi_100nodes_network.node[3].content_store 	"representation_breakdown[3] 0x7fff05a90168:0x7fff05a90168:0x7fff05a90168:0x7fff05a90168:0x7fff05a90168:" 	0
scalar barabasi_100nodes_network.node[3].proactive_component 	hdistance[3].proactive_component 	2.9832101663044
scalar barabasi_100nodes_network.node[3].proactive_component 	downloads[3].proactive_component 	432881
scalar barabasi_100nodes_network.node[3].proactive_component 	avg_time[3].proactive_component 	0
scalar barabasi_100nodes_network.node[4].core_layer 	interests[4] 	568057
scalar barabasi_100nodes_network.node[4].core_layer 	data[4] 	403939
scalar barabasi_100nodes_network.node[4].core_layer 	slots_sent[face$o[1]->client[4]] 	136591460
scalar barabasi_100nodes_network.node[4].core_layer 	slots_sent[face$o[2]->node[2]] 	0
scalar barabasi_100nodes_network.node[4].core_layer 	slots_sent[face$o[3]->node[27]] 	45520203
scalar barabasi_100nodes_network.node[4].core_layer 	slots_sent[face$o[4]->node[30]] 	62808303
scalar barabasi_100nodes_network.node[4].core_layer 	slots_sent[face$o[5]->node[85]] 	33354269
scalar barabasi_100nodes_network.node[4].content_store 	p_hit[4] 	0.28891114800099
scalar barabasi_100nodes_network.node[4].content_store 	hits[4] 	164118
scalar barabasi_100nodes_network.node[4].content_store 	misses[4] 	403939
scalar barabasi_100nodes_network.node[4].content_store 	decision_yes[4] 	403939
scalar barabasi_100nodes_network.node[4].content_store 	decision_no[4] 	0
scalar barabasi_100nodes_network.node[4].content_store 	decision_ratio[4] 	1
scalar barabasi_100nodes_network.node[4].content_store 	"representation_breakdown[4] 0x7fff05a90168:0x7fff05a90168:0x7fff05a90168:0x7fff05a90168:0x7fff05a90168:" 	0
scalar barabasi_100nodes_network.node[4].proactive_component 	hdistance[4].proactive_component 	3.0005680433216
scalar barabasi_100nodes_network.node[4].proactive_component 	downloads[4].proactive_component 	931267
scalar barabasi_100nodes_network.node[4].proactive_component 	avg_time[4].proactive_component 	0
scalar barabasi_100nodes_network.node[5].core_layer 	interests[5] 	2075651
scalar barabasi_100nodes_network.node[5].core_layer 	data[5] 	1677786
scalar barabasi_100nodes_network.node[5].core_layer 	slots_sent[face$o[1]->client[5]] 	125152500
scalar barabasi_100nodes_network.node[5].core_layer 	slots_sent[face$o[2]->node[0]] 	552603099
scalar barabasi_100nodes_network.node[5].core_layer 	slots_sent[face$o[3]->node[9]] 	21583693
scalar barabasi_100nodes_network.node[5].core_layer 	slots_sent[face$o[4]->node[35]] 	60311045
scalar barabasi_100nodes_network.node[5].content_store 	p_hit[5] 	0.19168203132415
scalar barabasi_100nodes_network.node[5].content_store 	hits[5] 	397865
scalar barabasi_100nodes_network.node[5].content_store 	misses[5] 	1677786
scalar barabasi_100nodes_network.node[5].content_store 	decision_yes[5] 	1677786
scalar barabasi_100nodes_network.node[5].content_store 	decision_no[5] 	0
scalar barabasi_100nodes_network.node[5].content_store 	decision_ratio[5] 	1
scalar barabasi_100nodes_network.node[5].content_store 	"representation_breakdown[5] 0x7fff05a90168:0x7fff05a90168:0x7fff05a90168:0x7fff05a90168:0x7fff05a90168:" 	0
scalar barabasi_100nodes_network.node[5].proactive_component 	hdistance[5].proactive_component 	2.0372809555996
scalar barabasi_100nodes_network.node[5].proactive_component 	downloads[5].proactive_component 	3706155
scalar barabasi_100nodes_network.node[5].proactive_component 	avg_time[5].proactive_component 	0
scalar barabasi_100nodes_network.node[6].core_layer 	interests[6] 	194844
scalar barabasi_100nodes_network.node[6].core_layer 	data[6] 	80999
scalar barabasi_100nodes_network.node[6].core_layer 	slots_sent[face$o[1]->client[6]] 	141688104
scalar barabasi_100nodes_network.node[6].core_layer 	slots_sent[face$o[2]->node[2]] 	0
scalar barabasi_100nodes_network.node[6].content_store 	p_hit[6] 	0.58428794317505
scalar barabasi_100nodes_network.node[6].content_store 	hits[6] 	113845
scalar barabasi_100nodes_network.node[6].content_store 	misses[6] 	80999
scalar barabasi_100nodes_network.node[6].content_store 	decision_yes[6] 	80999
scalar barabasi_100nodes_network.node[6].content_store 	decision_no[6] 	0
scalar barabasi_100nodes_network.node[6].content_store 	decision_ratio[6] 	1
scalar barabasi_100nodes_network.node[6].content_store 	"representation_breakdown[6] 0x7fff05a90168:0x7fff05a90168:0x7fff05a90168:0x7fff05a90168:0x7fff05a90168:" 	0
scalar barabasi_100nodes_network.node[6].proactive_component 	hdistance[6].proactive_component 	2.9790939794983
scalar barabasi_100nodes_network.node[6].proactive_component 	downloads[6].proactive_component 	286903
scalar barabasi_100nodes_network.node[6].proactive_component 	avg_time[6].proactive_component 	0
scalar barabasi_100nodes_network.node[7].core_layer 	interests[7] 	1194217
scalar barabasi_100nodes_network.node[7].core_layer 	data[7] 	960090
scalar barabasi_100nodes_network.node[7].core_layer 	slots_sent[face$o[1]->client[7]] 	134233627
scalar barabasi_100nodes_network.node[7].core_layer 	slots_sent[face$o[2]->node[2]] 	0
scalar barabasi_100nodes_network.node[7].core_layer 	slots_sent[face$o[3]->node[23]] 	195516401
scalar barabasi_100nodes_network.node[7].core_layer 	slots_sent[face$o[4]->node[31]] 	120581078
scalar barabasi_100nodes_network.node[7].core_layer 	slots_sent[face$o[5]->node[49]] 	33374976
scalar barabasi_100nodes_network.node[7].core_layer 	slots_sent[face$o[6]->node[90]] 	23487369
scalar barabasi_100nodes_network.node[7].content_store 	p_hit[7] 	0.19605063401375
scalar barabasi_100nodes_network.node[7].content_store 	hits[7] 	234127
scalar barabasi_100nodes_network.node[7].content_store 	misses[7] 	960090
scalar barabasi_100nodes_network.node[7].content_store 	decision_yes[7] 	960090
scalar barabasi_100nodes_network.node[7].content_store 	decision_no[7] 	0
scalar barabasi_100nodes_network.node[7].content_store 	decision_ratio[7] 	1
scalar barabasi_100nodes_network.node[7].content_store 	"representation_breakdown[7] 0x7fff05a90168:0x7fff05a90168:0x7fff05a90168:0x7fff05a90168:0x7fff05a90168:" 	0
scalar barabasi_100nodes_network.node[7].proactive_component 	hdistance[7].proactive_component 	2.9321284440026
scalar barabasi_100nodes_network.node[7].proactive_component 	downloads[7].proactive_component 	1771449
scalar barabasi_100nodes_network.node[7].proactive_component 	avg_time[7].proactive_component 	0
scalar barabasi_100nodes_network.node[8].core_layer 	interests[8] 	799764
scalar barabasi_100nodes_network.node[8].core_layer 	data[8] 	587888
scalar barabasi_100nodes_network.node[8].core_layer 	slots_sent[face$o[1]->client[8]] 	135327995
scalar barabasi_100nodes_network.node[8].core_layer 	slots_sent[face$o[2]->node[2]] 	0
scalar barabasi_100nodes_network.node[8].core_layer 	slots_sent[face$o[3]->node[12]] 	33413605
scalar barabasi_100nodes_network.node[8].core_layer 	slots_sent[face$o[4]->node[14]] 	33694715
scalar barabasi_100nodes_network.node[8].core_layer 	slots_sent[face$o[5]->node[17]] 	33725566
scalar barabasi_100nodes_network.node[8].core_layer 	slots_sent[face$o[6]->node[39]] 	63409426
scalar barabasi_100nodes_network.node[8].core_layer 	slots_sent[face$o[7]->node[61]] 	33705085
scalar barabasi_100nodes_network.node[8].core_layer 	slots_sent[face$o[8]->node[66]] 	33738579
scalar barabasi_100nodes_network.node[8].content_store 	p_hit[8] 	0.26492315232994
scalar barabasi_100nodes_network.node[8].content_store 	hits[8] 	211876
scalar barabasi_100nodes_network.node[8].content_store 	misses[8] 	587888
scalar barabasi_100nodes_network.node[8].content_store 	decision_yes[8] 	587888
scalar barabasi_100nodes_network.node[8].content_store 	decision_no[8] 	0
scalar barabasi_100nodes_network.node[8].content_store 	decision_ratio[8] 	1
scalar barabasi_100nodes_network.node[8].content_store 	"representation_breakdown[8] 0x7fff05a90168:0x7fff05a90168:0x7fff05a90168:0x7fff05a90168:0x7fff05a90168:" 	0
scalar barabasi_100nodes_network.node[8].proactive_component 	hdistance[8].proactive_component 	2.9898860231275
scalar barabasi_100nodes_network.node[8].proactive_component 	downloads[8].proactive_component 	1445030
scalar barabasi_100nodes_network.node[8].proactive_component 	avg_time[8].proactive_component 	0
scalar barabasi_100nodes_network.node[9].core_layer 	interests[9] 	1617137
scalar barabasi_100nodes_network.node[9].core_layer 	repo_load[9] 	1464782
scalar barabasi_100nodes_network.node[9].core_layer 	data[9] 	57267
scalar barabasi_100nodes_network.node[9].core_layer 	slots_sent[face$o[1]->client[9]] 	118966276
scalar barabasi_100nodes_network.node[9].core_layer 	slots_sent[face$o[2]->node[5]] 	452928515
scalar barabasi_100nodes_network.node[9].content_store 	p_hit[9] 	0.058800212968969
scalar barabasi_100nodes_network.node[9].content_store 	hits[9] 	95088
scalar barabasi_100nodes_network.node[9].content_store 	misses[9] 	1522049
scalar barabasi_100nodes_network.node[9].content_store 	decision_yes[9] 	57267
scalar barabasi_100nodes_network.node[9].content_store 	decision_no[9] 	1464782
scalar barabasi_100nodes_network.node[9].content_store 	decision_ratio[9] 	0.037624938487526
scalar barabasi_100nodes_network.node[9].content_store 	"representation_breakdown[9] 0x7fff05a90168:0x7fff05a90168:0x7fff05a90168:0x7fff05a90168:0x7fff05a90168:" 	0
scalar barabasi_100nodes_network.node[9].proactive_component 	hdistance[9].proactive_component 	3.4872397177766
scalar barabasi_100nodes_network.node[9].proactive_component 	downloads[9].proactive_component 	232440
scalar barabasi_100nodes_network.node[9].proactive_component 	avg_time[9].proactive_component 	0
scalar barabasi_100nodes_network.node[10].core_layer 	interests[10] 	279949
scalar barabasi_100nodes_network.node[10].core_layer 	data[10] 	155504
scalar barabasi_100nodes_network.node[10].core_layer 	slots_sent[face$o[1]->client[10]] 	139988146
scalar barabasi_100nodes_network.node[10].core_layer 	slots_sent[face$o[2]->node[0]] 	0
scalar barabasi_100nodes_network.node[10].core_layer 	slots_sent[face$o[3]->node[71]] 	31648559
scalar barabasi_100nodes_network.node[10].content_store 	p_hit[10] 	0.44452739606143
scalar barabasi_100nodes_network.node[10].content_store 	hits[10] 	124445
scalar barabasi_100nodes_network.node[10].content_store 	misses[10] 	155504
scalar barabasi_100nodes_network.node[10].content_store 	decision_yes[10] 	155504
scalar barabasi_100nodes_network.node[10].content_store 	decision_no[10] 	0
scalar barabasi_100nodes_network.node[10].content_store 	decision_ratio[10] 	1
scalar barabasi_100nodes_network.node[10].content_store 	"representation_breakdown[10] 0x7fff05a90168:0x7fff05a90168:0x7fff05a90168:0x7fff05a90168:0x7fff05a90168:" 	0
scalar barabasi_100nodes_network.node[10].proactive_component 	hdistance[10].proactive_component 	2.6528687493218
scalar barabasi_100nodes_network.node[10].proactive_component 	downloads[10].proactive_component 	433133
scalar barabasi_100nodes_network.node[10].proactive_component 	avg_time[10].proactive_component 	0
scalar barabasi_100nodes_network.node[11].core_layer 	interests[11] 	193852
scalar barabasi_100nodes_network.node[11].core_layer 	data[11] 	80495
scalar barabasi_100nodes_network.node[11].core_layer 	slots_sent[face$o[1]->client[11]] 	140945225
scalar barabasi_100nodes_network.node[11].core_layer 	slots_sent[face$o[2]->node[0]] 	0
scalar barabasi_100nodes_network.node[11].content_store 	p_hit[11] 	0.58476053896787
scalar barabasi_100nodes_network.node[11].content_store 	hits[11] 	113357
scalar barabasi_100nodes_network.node[11].content_store 	misses[11] 	80495
scalar barabasi_100nodes_network.node[11].content_store 	decision_yes[11] 	80495
scalar barabasi_100nodes_network.node[11].content_store 	decision_no[11] 	0
scalar barabasi_100nodes_network.node[11].content_store 	decision_ratio[11] 	1
scalar barabasi_100nodes_network.node[11].content_store 	"representation_breakdown[11] 0x7fff05a90168:0x7fff05a90168:0x7fff05a90168:0x7fff05a90168:0x7fff05a90168:" 	0
scalar barabasi_100nodes_network.node[11].proactive_component 	hdistance[11].proactive_component 	2.6542930462365
scalar barabasi_100nodes_network.node[11].proactive_component 	downloads[11].proactive_component 	287197
scalar barabasi_100nodes_network.node[11].proactive_component 	avg_time[11].proactive_component 	0
scalar barabasi_100nodes_network.node[12].core_layer 	interests[12] 	192293
scalar barabasi_100nodes_network.node[12].core_layer 	data[12] 	79396
scalar barabasi_100nodes_network.node[12].core_layer 	slots_sent[face$o[1]->client[12]] 	144864966
scalar barabasi_100nodes_network.node[12].core_layer 	slots_sent[face$o[2]->node[8]] 	0
scalar barabasi_100nodes_network.node[12].content_store 	p_hit[12] 	0.58710925514709
scalar barabasi_100nodes_network.node[12].content_store 	hits[12] 	112897
scalar barabasi_100nodes_network.node[12].content_store 	misses[12] 	79396
scalar barabasi_100nodes_network.node[12].content_store 	decision_yes[12] 	79396
scalar barabasi_100nodes_network.node[12].content_store 	decision_no[12] 	0
scalar barabasi_100nodes_network.node[12].content_store 	decision_ratio[12] 	1
scalar barabasi_100nodes_network.node[12].content_store 	"representation_breakdown[12] 0x7fff05a90168:0x7fff05a90168:0x7fff05a90168:0x7fff05a90168:0x7fff05a90168:" 	0
scalar barabasi_100nodes_network.node[12].proactive_component 	hdistance[12].proactive_component 	3.2512764377917
scalar barabasi_100nodes_network.node[12].proactive_component 	downloads[12].proactive_component 	264016
scalar barabasi_100nodes_network.node[12].proactive_component 	avg_time[12].proactive_component 	0
scalar barabasi_100nodes_network.node[13].core_layer 	interests[13] 	503580
scalar barabasi_100nodes_network.node[13].core_layer 	data[13] 	353122
scalar barabasi_100nodes_network.node[13].core_layer 	slots_sent[face$o[1]->client[13]] 	138191989
scalar barabasi_100nodes_network.node[13].core_layer 	slots_sent[face$o[2]->node[2]] 	0
scalar barabasi_100nodes_network.node[13].core_layer 	slots_sent[face$o[3]->node[67]] 	33474672
scalar barabasi_100nodes_network.node[13].core_layer 	slots_sent[face$o[4]->node[78]] 	83664805
scalar barabasi_100nodes_network.node[13].content_store 	p_hit[13] 	0.29877675840979
scalar barabasi_100nodes_network.node[13].content_store 	hits[13] 	150458
scalar barabasi_100nodes_network.node[13].content_store 	misses[13] 	353122
scalar barabasi_100nodes_network.node[13].content_store 	decision_yes[13] 	353122
scalar barabasi_100nodes_network.node[13].content_store 	decision_no[13] 	0
scalar barabasi_100nodes_network.node[13].content_store 	decision_ratio[13] 	1
scalar barabasi_100nodes_network.node[13].content_store 	"representation_breakdown[13] 0x7fff05a90168:0x7fff05a90168:0x7fff05a90168:0x7fff05a90168:0x7fff05a90168:" 	0
scalar barabasi_100nodes_network.node[13].proactive_component 	hdistance[13].proactive_component 	2.9659926081248
scalar barabasi_100nodes_network.node[13].proactive_component 	downloads[13].proactive_component 	755424
scalar barabasi_100nodes_network.node[13].proactive_component 	avg_time[13].proactive_component 	0
scalar barabasi_100nodes_network.node[14].core_layer 	interests[14] 	193233
scalar barabasi_100nodes_network.node[14].core_layer 	data[14] 	79685
scalar barabasi_100nodes_network.node[14].core_layer 	slots_sent[face$o[1]->client[14]] 	145615659
scalar barabasi_100nodes_network.node[14].core_layer 	slots_sent[face$o[2]->node[8]] 	0
scalar barabasi_100nodes_network.node[14].content_store 	p_hit[14] 	0.58762219703674
scalar barabasi_100nodes_network.node[14].content_store 	hits[14] 	113548
scalar barabasi_100nodes_network.node[14].content_store 	misses[14] 	79685
scalar barabasi_100nodes_network.node[14].content_store 	decision_yes[14] 	79685
scalar barabasi_100nodes_network.node[14].content_store 	decision_no[14] 	0
scalar barabasi_100nodes_network.node[14].content_store 	decision_ratio[14] 	1
scalar barabasi_100nodes_network.node[14].content_store 	"representation_breakdown[14] 0x7fff05a90168:0x7fff05a90168:0x7fff05a90168:0x7fff05a90168:0x7fff05a90168:" 	0
scalar barabasi_100nodes_network.node[14].proactive_component 	hdistance[14].proactive_component 	3.2433466545175
scalar barabasi_100nodes_network.node[14].proactive_component 	downloads[14].proactive_component 	264491
scalar barabasi_100nodes_network.node[14].proactive_component 	avg_time[14].proactive_component 	0
scalar barabasi_100nodes_network.node[15].core_layer 	interests[15] 	1922732
scalar barabasi_100nodes_network.node[15].core_layer 	repo_load[15] 	1683453
scalar barabasi_100nodes_network.node[15].core_layer 	data[15] 	145462
scalar barabasi_100nodes_network.node[15].core_layer 	slots_sent[face$o[1]->client[15]] 	100438964
scalar barabasi_100nodes_network.node[15].core_layer 	slots_sent[face$o[2]->node[0]] 	480178924
scalar barabasi_100nodes_network.node[15].core_layer 	slots_sent[face$o[3]->node[40]] 	29960686
scalar barabasi_100nodes_network.node[15].core_layer 	slots_sent[face$o[4]->node[56]] 	20325507
scalar barabasi_100nodes_network.node[15].content_store 	p_hit[15] 	0.048793591618593
scalar barabasi_100nodes_network.node[15].content_store 	hits[15] 	93817
scalar barabasi_100nodes_network.node[15].content_store 	misses[15] 	1828915
scalar barabasi_100nodes_network.node[15].content_store 	decision_yes[15] 	145462
scalar barabasi_100nodes_network.node[15].content_store 	decision_no[15] 	1683453
scalar barabasi_100nodes_network.node[15].content_store 	decision_ratio[15] 	0.079534587446656
scalar barabasi_100nodes_network.node[15].content_store 	"representation_breakdown[15] 0x7fff05a90168:0x7fff05a90168:0x7fff05a90168:0x7fff05a90168:0x7fff05a90168:" 	0
scalar barabasi_100nodes_network.node[15].proactive_component 	hdistance[15].proactive_component 	2.9118738891967
scalar barabasi_100nodes_network.node[15].proactive_component 	downloads[15].proactive_component 	418616
scalar barabasi_100nodes_network.node[15].proactive_component 	avg_time[15].proactive_component 	0
scalar barabasi_100nodes_network.node[16].core_layer 	interests[16] 	671511
scalar barabasi_100nodes_network.node[16].core_layer 	data[16] 	514542
scalar barabasi_100nodes_network.node[16].core_layer 	slots_sent[face$o[1]->client[16]] 	136250434
scalar barabasi_100nodes_network.node[16].core_layer 	slots_sent[face$o[2]->node[2]] 	0
scalar barabasi_100nodes_network.node[16].core_layer 	slots_sent[face$o[3]->node[19]] 	146500845
scalar barabasi_100nodes_network.node[16].core_layer 	slots_sent[face$o[4]->node[20]] 	33514502
scalar barabasi_100nodes_network.node[16].content_store 	p_hit[16] 	0.23375491987473
scalar barabasi_100nodes_network.node[16].content_store 	hits[16] 	156969
scalar barabasi_100nodes_network.node[16].content_store 	misses[16] 	514542
scalar barabasi_100nodes_network.node[16].content_store 	decision_yes[16] 	514542
scalar barabasi_100nodes_network.node[16].content_store 	decision_no[16] 	0
scalar barabasi_100nodes_network.node[16].content_store 	decision_ratio[16] 	1
scalar barabasi_100nodes_network.node[16].content_store 	"representation_breakdown[16] 0x7fff05a90168:0x7fff05a90168:0x7fff05a90168:0x7fff05a90168:0x7fff05a90168:" 	0
scalar barabasi_100nodes_network.node[16].proactive_component 	hdistance[16].proactive_component 	2.9119306112271
scalar barabasi_100nodes_network.node[16].proactive_component 	downloads[16].proactive_component 	866192
scalar barabasi_100nodes_network.node[16].proactive_component 	avg_time[16].proactive_component 	0
scalar barabasi_100nodes_network.node[17].core_layer 	interests[17] 	192458
scalar barabasi_100nodes_network.node[17].core_layer 	data[17] 	79558
scalar barabasi_100nodes_network.node[17].core_layer 	slots_sent[face$o[1]->client[17]] 	144962563
scalar barabasi_100nodes_network.node[17].core_layer 	slots_sent[face$o[2]->node[8]] 	0
scalar barabasi_100nodes_network.node[17].content_store 	p_hit[17] 	0.58662149663823
scalar barabasi_100nodes_network.node[17].content_store 	hits[17] 	112900
scalar barabasi_100nodes_network.node[17].content_store 	misses[17] 	79558
scalar barabasi_100nodes_network.node[17].content_store 	decision_yes[17] 	79558
scalar barabasi_100nodes_network.node[17].content_store 	decision_no[17] 	0
scalar barabasi_100nodes_network.node[17].content_store 	decision_ratio[17] 	1
scalar barabasi_100nodes_network.node[17].content_store 	"representation_breakdown[17] 0x7fff05a90168:0x7fff05a90168:0x7fff05a90168:0x7fff05a90168:0x7fff05a90168:" 	0
scalar barabasi_100nodes_network.node[17].proactive_component 	hdistance[17].proactive_component 	3.2489573951151
scalar barabasi_100nodes_network.node[17].proactive_component 	downloads[17].proactive_component 	264242
scalar barabasi_100nodes_network.node[17].proactive_component 	avg_time[17].proactive_component 	0
scalar barabasi_100nodes_network.node[18].core_layer 	interests[18] 	453349
scalar barabasi_100nodes_network.node[18].core_layer 	repo_load[18] 	108786
scalar barabasi_100nodes_network.node[18].core_layer 	data[18] 	216396
scalar barabasi_100nodes_network.node[18].core_layer 	slots_sent[face$o[1]->client[18]] 	114249920
scalar barabasi_100nodes_network.node[18].core_layer 	slots_sent[face$o[2]->node[2]] 	0
scalar barabasi_100nodes_network.node[18].core_layer 	slots_sent[face$o[3]->node[53]] 	29252456
scalar barabasi_100nodes_network.node[18].core_layer 	slots_sent[face$o[4]->node[68]] 	29226403
scalar barabasi_100nodes_network.node[18].core_layer 	slots_sent[face$o[5]->node[72]] 	29172544
scalar barabasi_100nodes_network.node[18].content_store 	p_hit[18] 	0.28271155335073
scalar barabasi_100nodes_network.node[18].content_store 	hits[18] 	128167
scalar barabasi_100nodes_network.node[18].content_store 	misses[18] 	325182
scalar barabasi_100nodes_network.node[18].content_store 	decision_yes[18] 	216396
scalar barabasi_100nodes_network.node[18].content_store 	decision_no[18] 	108786
scalar barabasi_100nodes_network.node[18].content_store 	decision_ratio[18] 	0.66546118788863
scalar barabasi_100nodes_network.node[18].content_store 	"representation_breakdown[18] 0x7fff05a90168:0x7fff05a90168:0x7fff05a90168:0x7fff05a90168:0x7fff05a90168:" 	0
scalar barabasi_100nodes_network.node[18].proactive_component 	hdistance[18].proactive_component 	3.261632984177
scalar barabasi_100nodes_network.node[18].proactive_component 	downloads[18].proactive_component 	644697
scalar barabasi_100nodes_network.node[18].proactive_component 	avg_time[18].proactive_component 	0
scalar barabasi_100nodes_network.node[19].core_layer 	interests[19] 	540919
scalar barabasi_100nodes_network.node[19].core_layer 	data[19] 	371139
scalar barabasi_100nodes_network.node[19].core_layer 	slots_sent[face$o[1]->client[19]] 	140991192
scalar barabasi_100nodes_network.node[19].core_layer 	slots_sent[face$o[2]->node[16]] 	0
scalar barabasi_100nodes_network.node[19].core_layer 	slots_sent[face$o[3]->node[63]] 	34196769
scalar barabasi_100nodes_network.node[19].core_layer 	slots_sent[face$o[4]->node[70]] 	33640032
scalar barabasi_100nodes_network.node[19].core_layer 	slots_sent[face$o[5]->node[80]] 	33812225
scalar barabasi_100nodes_network.node[19].core_layer 	slots_sent[face$o[6]->node[89]] 	33723989
scalar barabasi_100nodes_network.node[19].content_store 	p_hit[19] 	0.31387324164986
scalar barabasi_100nodes_network.node[19].content_store 	hits[19] 	169780
scalar barabasi_100nodes_network.node[19].content_store 	misses[19] 	371139
scalar barabasi_100nodes_network.node[19].content_store 	decision_yes[19] 	371139
scalar barabasi_100nodes_network.node[19].content_store 	decision_no[19] 	0
scalar barabasi_100nodes_network.node[19].content_store 	decision_ratio[19] 	1
scalar barabasi_100nodes_network.node[19].content_store 	"representation_breakdown[19] 0x7fff05a90168:0x7fff05a90168:0x7fff05a90168:0x7fff05a90168:0x7fff05a90168:" 	0
scalar barabasi_100nodes_network.node[19].proactive_component 	hdistance[19].proactive_component 	3.3681754192844
scalar barabasi_100nodes_network.node[19].proactive_component 	downloads[19].proactive_component 	928427
scalar barabasi_100nodes_network.node[19].proactive_component 	avg_time[19].proactive_component 	0
scalar barabasi_100nodes_network.node[20].core_layer 	interests[20] 	192539
scalar barabasi_100nodes_network.node[20].core_layer 	data[20] 	79524
scalar barabasi_100nodes_network.node[20].core_layer 	slots_sent[face$o[1]->client[20]] 	145115210
scalar barabasi_100nodes_network.node[20].core_layer 	slots_sent[face$o[2]->node[16]] 	0
scalar barabasi_100nodes_network.node[20].content_store 	p_hit[20] 	0.58697199009032
scalar barabasi_100nodes_network.node[20].content_store 	hits[20] 	113015
scalar barabasi_100nodes_network.node[20].content_store 	misses[20] 	79524
scalar barabasi_100nodes_network.node[20].content_store 	decision_yes[20] 	79524
scalar barabasi_100nodes_network.node[20].content_store 	decision_no[20] 	0
scalar barabasi_100nodes_network.node[20].content_store 	decision_ratio[20] 	1
scalar barabasi_100nodes_network.node[20].content_store 	"representation_breakdown[20] 0x7fff05a90168:0x7fff05a90168:0x7fff05a90168:0x7fff05a90168:0x7fff05a90168:" 	0
scalar barabasi_100nodes_network.node[20].proactive_component 	hdistance[20].proactive_component 	3.2322236703613
scalar barabasi_100nodes_network.node[20].proactive_component 	downloads[20].proactive_component 	263173
scalar barabasi_100nodes_network.node[20].proactive_component 	avg_time[20].proactive_component 	0
scalar barabasi_100nodes_network.node[21].core_layer 	interests[21] 	316807
scalar barabasi_100nodes_network.node[21].core_layer 	data[21] 	188874
scalar barabasi_100nodes_network.node[21].core_layer 	slots_sent[face$o[1]->client[21]] 	138349950
scalar barabasi_100nodes_network.node[21].core_layer 	slots_sent[face$o[2]->node[0]] 	0
scalar barabasi_100nodes_network.node[21].core_layer 	slots_sent[face$o[3]->node[24]] 	22964211
scalar barabasi_100nodes_network.node[21].core_layer 	slots_sent[face$o[4]->node[57]] 	21966205
scalar barabasi_100nodes_network.node[21].content_store 	p_hit[21] 	0.4038199913512
scalar barabasi_100nodes_network.node[21].content_store 	hits[21] 	127933
scalar barabasi_100nodes_network.node[21].content_store 	misses[21] 	188874
scalar barabasi_100nodes_network.node[21].content_store 	decision_yes[21] 	188874
scalar barabasi_100nodes_network.node[21].content_store 	decision_no[21] 	0
scalar barabasi_100nodes_network.node[21].content_store 	decision_ratio[21] 	1
scalar barabasi_100nodes_network.node[21].content_store 	"representation_breakdown[21] 0x7fff05a90168:0x7fff05a90168:0x7fff05a90168:0x7fff05a90168:0x7fff05a90168:" 	0
scalar barabasi_100nodes_network.node[21].proactive_component 	hdistance[21].proactive_component 	2.7156251491101
scalar barabasi_100nodes_network.node[21].proactive_component 	downloads[21].proactive_component 	502984
scalar barabasi_100nodes_network.node[21].proactive_component 	avg_time[21].proactive_component 	0
scalar barabasi_100nodes_network.node[22].core_layer 	interests[22] 	189745
scalar barabasi_100nodes_network.node[22].core_layer 	repo_load[22] 	46455
scalar barabasi_100nodes_network.node[22].core_layer 	data[22] 	56854
scalar barabasi_100nodes_network.node[22].core_layer 	slots_sent[face$o[1]->client[22]] 	111101774
scalar barabasi_100nodes_network.node[22].core_layer 	slots_sent[face$o[2]->node[0]] 	0
scalar barabasi_100nodes_network.node[22].content_store 	p_hit[22] 	0.45553769532794
scalar barabasi_100nodes_network.node[22].content_store 	hits[22] 	86436
scalar barabasi_100nodes_network.node[22].content_store 	misses[22] 	103309
scalar barabasi_100nodes_network.node[22].content_store 	decision_yes[22] 	56854
scalar barabasi_100nodes_network.node[22].content_store 	decision_no[22] 	46455
scalar barabasi_100nodes_network.node[22].content_store 	decision_ratio[22] 	0.55032959374304
scalar barabasi_100nodes_network.node[22].content_store 	"representation_breakdown[22] 0x7fff05a90168:0x7fff05a90168:0x7fff05a90168:0x7fff05a90168:0x7fff05a90168:" 	0
scalar barabasi_100nodes_network.node[22].proactive_component 	hdistance[22].proactive_component 	2.8943634697675
scalar barabasi_100nodes_network.node[22].proactive_component 	downloads[22].proactive_component 	211726
scalar barabasi_100nodes_network.node[22].proactive_component 	avg_time[22].proactive_component 	0
scalar barabasi_100nodes_network.node[23].core_layer 	interests[23] 	683971
scalar barabasi_100nodes_network.node[23].core_layer 	data[23] 	494268
scalar barabasi_100nodes_network.node[23].core_layer 	slots_sent[face$o[1]->client[23]] 	140981009
scalar barabasi_100nodes_network.node[23].core_layer 	slots_sent[face$o[2]->node[7]] 	0
scalar barabasi_100nodes_network.node[23].core_layer 	slots_sent[face$o[3]->node[46]] 	64510456
scalar barabasi_100nodes_network.node[23].core_layer 	slots_sent[face$o[4]->node[47]] 	23168412
scalar barabasi_100nodes_network.node[23].core_layer 	slots_sent[face$o[5]->node[51]] 	34189913
scalar barabasi_100nodes_network.node[23].core_layer 	slots_sent[face$o[6]->node[83]] 	34206006
scalar barabasi_100nodes_network.node[23].core_layer 	slots_sent[face$o[7]->node[86]] 	33867975
scalar barabasi_100nodes_network.node[23].content_store 	p_hit[23] 	0.27735532646852
scalar barabasi_100nodes_network.node[23].content_store 	hits[23] 	189703
scalar barabasi_100nodes_network.node[23].content_store 	misses[23] 	494268
scalar barabasi_100nodes_network.node[23].content_store 	decision_yes[23] 	494268
scalar barabasi_100nodes_network.node[23].content_store 	decision_no[23] 	0
scalar barabasi_100nodes_network.node[23].content_store 	decision_ratio[23] 	1
scalar barabasi_100nodes_network.node[23].content_store 	"representation_breakdown[23] 0x7fff05a90168:0x7fff05a90168:0x7fff05a90168:0x7fff05a90168:0x7fff05a90168:" 	0
scalar barabasi_100nodes_network.node[23].proactive_component 	hdistance[23].proactive_component 	3.3200059339598
scalar barabasi_100nodes_network.node[23].proactive_component 	downloads[23].proactive_component 	1166169
scalar barabasi_100nodes_network.node[23].proactive_component 	avg_time[23].proactive_component 	0
scalar barabasi_100nodes_network.node[24].core_layer 	interests[24] 	189529
scalar barabasi_100nodes_network.node[24].core_layer 	repo_load[24] 	46708
scalar barabasi_100nodes_network.node[24].core_layer 	data[24] 	55798
scalar barabasi_100nodes_network.node[24].core_layer 	slots_sent[face$o[1]->client[24]] 	113804603
scalar barabasi_100nodes_network.node[24].core_layer 	slots_sent[face$o[2]->node[21]] 	0
scalar barabasi_100nodes_network.node[24].content_store 	p_hit[24] 	0.45915400809375
scalar barabasi_100nodes_network.node[24].content_store 	hits[24] 	87023
scalar barabasi_100nodes_network.node[24].content_store 	misses[24] 	102506
scalar barabasi_100nodes_network.node[24].content_store 	decision_yes[24] 	55798
scalar barabasi_100nodes_network.node[24].content_store 	decision_no[24] 	46708
scalar barabasi_100nodes_network.node[24].content_store 	decision_ratio[24] 	0.5443388679687
scalar barabasi_100nodes_network.node[24].content_store 	"representation_breakdown[24] 0x7fff05a90168:0x7fff05a90168:0x7fff05a90168:0x7fff05a90168:0x7fff05a90168:" 	0
scalar barabasi_100nodes_network.node[24].proactive_component 	hdistance[24].proactive_component 	3.1781629816804
scalar barabasi_100nodes_network.node[24].proactive_component 	downloads[24].proactive_component 	197875
scalar barabasi_100nodes_network.node[24].proactive_component 	avg_time[24].proactive_component 	0
scalar barabasi_100nodes_network.node[25].core_layer 	interests[25] 	280212
scalar barabasi_100nodes_network.node[25].core_layer 	data[25] 	155615
scalar barabasi_100nodes_network.node[25].core_layer 	slots_sent[face$o[1]->client[25]] 	140136451
scalar barabasi_100nodes_network.node[25].core_layer 	slots_sent[face$o[2]->node[2]] 	0
scalar barabasi_100nodes_network.node[25].core_layer 	slots_sent[face$o[3]->node[38]] 	32046969
scalar barabasi_100nodes_network.node[25].content_store 	p_hit[25] 	0.44465262015902
scalar barabasi_100nodes_network.node[25].content_store 	hits[25] 	124597
scalar barabasi_100nodes_network.node[25].content_store 	misses[25] 	155615
scalar barabasi_100nodes_network.node[25].content_store 	decision_yes[25] 	155615
scalar barabasi_100nodes_network.node[25].content_store 	decision_no[25] 	0
scalar barabasi_100nodes_network.node[25].content_store 	decision_ratio[25] 	1
scalar barabasi_100nodes_network.node[25].content_store 	"representation_breakdown[25] 0x7fff05a90168:0x7fff05a90168:0x7fff05a90168:0x7fff05a90168:0x7fff05a90168:" 	0
scalar barabasi_100nodes_network.node[25].proactive_component 	hdistance[25].proactive_component 	2.9751600476742
scalar barabasi_100nodes_network.node[25].proactive_component 	downloads[25].proactive_component 	433777
scalar barabasi_100nodes_network.node[25].proactive_component 	avg_time[25].proactive_component 	0
scalar barabasi_100nodes_network.node[26].core_layer 	interests[26] 	444152
scalar barabasi_100nodes_network.node[26].core_layer 	repo_load[26] 	121583
scalar barabasi_100nodes_network.node[26].core_layer 	data[26] 	216788
scalar barabasi_100nodes_network.node[26].core_layer 	slots_sent[face$o[1]->client[26]] 	100821615
scalar barabasi_100nodes_network.node[26].core_layer 	slots_sent[face$o[2]->node[2]] 	0
scalar barabasi_100nodes_network.node[26].core_layer 	slots_sent[face$o[3]->node[77]] 	57760937
scalar barabasi_100nodes_network.node[26].core_layer 	slots_sent[face$o[4]->node[91]] 	30714357
scalar barabasi_100nodes_network.node[26].content_store 	p_hit[26] 	0.23816396188692
scalar barabasi_100nodes_network.node[26].content_store 	hits[26] 	105781
scalar barabasi_100nodes_network.node[26].content_store 	misses[26] 	338371
scalar barabasi_100nodes_network.node[26].content_store 	decision_yes[26] 	216788
scalar barabasi_100nodes_network.node[26].content_store 	decision_no[26] 	121583
scalar barabasi_100nodes_network.node[26].content_store 	decision_ratio[26] 	0.64068138226976
scalar barabasi_100nodes_network.node[26].content_store 	"representation_breakdown[26] 0x7fff05a90168:0x7fff05a90168:0x7fff05a90168:0x7fff05a90168:0x7fff05a90168:" 	0
scalar barabasi_100nodes_network.node[26].proactive_component 	hdistance[26].proactive_component 	3.1084335812422
scalar barabasi_100nodes_network.node[26].proactive_component 	downloads[26].proactive_component 	548723
scalar barabasi_100nodes_network.node[26].proactive_component 	avg_time[26].proactive_component 	0
scalar barabasi_100nodes_network.node[27].core_layer 	interests[27] 	275301
scalar barabasi_100nodes_network.node[27].core_layer 	repo_load[27] 	78009
scalar barabasi_100nodes_network.node[27].core_layer 	data[27] 	110247
scalar barabasi_100nodes_network.node[27].core_layer 	slots_sent[face$o[1]->client[27]] 	104109458
scalar barabasi_100nodes_network.node[27].core_layer 	slots_sent[face$o[2]->node[4]] 	0
scalar barabasi_100nodes_network.node[27].core_layer 	slots_sent[face$o[3]->node[99]] 	30640376
scalar barabasi_100nodes_network.node[27].content_store 	p_hit[27] 	0.31618119803415
scalar barabasi_100nodes_network.node[27].content_store 	hits[27] 	87045
scalar barabasi_100nodes_network.node[27].content_store 	misses[27] 	188256
scalar barabasi_100nodes_network.node[27].content_store 	decision_yes[27] 	110247
scalar barabasi_100nodes_network.node[27].content_store 	decision_no[27] 	78009
scalar barabasi_100nodes_network.node[27].content_store 	decision_ratio[27] 	0.58562276899541
scalar barabasi_100nodes_network.node[27].content_store 	"representation_breakdown[27] 0x7fff05a90168:0x7fff05a90168:0x7fff05a90168:0x7fff05a90168:0x7fff05a90168:" 	0
scalar barabasi_100nodes_network.node[27].proactive_component 	hdistance[27].proactive_component 	3.3683710836837
scalar barabasi_100nodes_network.node[27].proactive_component 	downloads[27].proactive_component 	309666
scalar barabasi_100nodes_network.node[27].proactive_component 	avg_time[27].proactive_component 	0
scalar barabasi_100nodes_network.node[28].core_layer 	interests[28] 	1881576
scalar barabasi_100nodes_network.node[28].core_layer 	repo_load[28] 	1737887
scalar barabasi_100nodes_network.node[28].core_layer 	data[28] 	56749
scalar barabasi_100nodes_network.node[28].core_layer 	slots_sent[face$o[1]->client[28]] 	111895601
scalar barabasi_100nodes_network.node[28].core_layer 	slots_sent[face$o[2]->node[0]] 	521375703
scalar barabasi_100nodes_network.node[28].content_store 	p_hit[28] 	0.04620594650442
scalar barabasi_100nodes_network.node[28].content_store 	hits[28] 	86940
scalar barabasi_100nodes_network.node[28].content_store 	misses[28] 	1794636
scalar barabasi_100nodes_network.node[28].content_store 	decision_yes[28] 	56749
scalar barabasi_100nodes_network.node[28].content_store 	decision_no[28] 	1737887
scalar barabasi_100nodes_network.node[28].content_store 	decision_ratio[28] 	0.031621454155606
scalar barabasi_100nodes_network.node[28].content_store 	"representation_breakdown[28] 0x7fff05a90168:0x7fff05a90168:0x7fff05a90168:0x7fff05a90168:0x7fff05a90168:" 	0
scalar barabasi_100nodes_network.node[28].proactive_component 	hdistance[28].proactive_component 	2.8939810065848
scalar barabasi_100nodes_network.node[28].proactive_component 	downloads[28].proactive_component 	211547
scalar barabasi_100nodes_network.node[28].proactive_component 	avg_time[28].proactive_component 	0
scalar barabasi_100nodes_network.node[29].core_layer 	interests[29] 	194293
scalar barabasi_100nodes_network.node[29].core_layer 	data[29] 	80904
scalar barabasi_100nodes_network.node[29].core_layer 	slots_sent[face$o[1]->client[29]] 	141349600
scalar barabasi_100nodes_network.node[29].core_layer 	slots_sent[face$o[2]->node[2]] 	0
scalar barabasi_100nodes_network.node[29].content_store 	p_hit[29] 	0.58359796801738
scalar barabasi_100nodes_network.node[29].content_store 	hits[29] 	113389
scalar barabasi_100nodes_network.node[29].content_store 	misses[29] 	80904
scalar barabasi_100nodes_network.node[29].content_store 	decision_yes[29] 	80904
scalar barabasi_100nodes_network.node[29].content_store 	decision_no[29] 	0
scalar barabasi_100nodes_network.node[29].content_store 	decision_ratio[29] 	1
scalar barabasi_100nodes_network.node[29].content_store 	"representation_breakdown[29] 0x7fff05a90168:0x7fff05a90168:0x7fff05a90168:0x7fff05a90168:0x7fff05a90168:" 	0
scalar barabasi_100nodes_network.node[29].proactive_component 	hdistance[29].proactive_component 	2.9782723381955
scalar barabasi_100nodes_network.node[29].proactive_component 	downloads[29].proactive_component 	286225
scalar barabasi_100nodes_network.node[29].proactive_component 	avg_time[29].proactive_component 	0
scalar barabasi_100nodes_network.node[30].core_layer 	interests[30] 	278325
scalar barabasi_100nodes_network.node[30].core_layer 	data[30] 	153749
scalar barabasi_100nodes_network.node[30].core_layer 	slots_sent[face$o[1]->client[30]] 	143968720
scalar barabasi_100nodes_network.node[30].core_layer 	slots_sent[face$o[2]->node[4]] 	0
scalar barabasi_100nodes_network.node[30].core_layer 	slots_sent[face$o[3]->node[88]] 	33809609
scalar barabasi_100nodes_network.node[30].content_store 	p_hit[30] 	0.44759184406719
scalar barabasi_100nodes_network.node[30].content_store 	hits[30] 	124576
scalar barabasi_100nodes_network.node[30].content_store 	misses[30] 	153749
scalar barabasi_100nodes_network.node[30].content_store 	decision_yes[30] 	153749
scalar barabasi_100nodes_network.node[30].content_store 	decision_no[30] 	0
scalar barabasi_100nodes_network.node[30].content_store 	decision_ratio[30] 	1
scalar barabasi_100nodes_network.node[30].content_store 	"representation_breakdown[30] 0x7fff05a90168:0x7fff05a90168:0x7fff05a90168:0x7fff05a90168:0x7fff05a90168:" 	0
scalar barabasi_100nodes_network.node[30].proactive_component 	hdistance[30].proactive_component 	3.1798868468077
scalar barabasi_100nodes_network.node[30].proactive_component 	downloads[30].proactive_component 	404054
scalar barabasi_100nodes_network.node[30].proactive_component 	avg_time[30].proactive_component 	0
scalar barabasi_100nodes_network.node[31].core_layer 	interests[31] 	430024
scalar barabasi_100nodes_network.node[31].core_layer 	data[31] 	299092
scalar barabasi_100nodes_network.node[31].core_layer 	slots_sent[face$o[1]->client[31]] 	142161239
scalar barabasi_100nodes_network.node[31].core_layer 	slots_sent[face$o[2]->node[7]] 	0
scalar barabasi_100nodes_network.node[31].core_layer 	slots_sent[face$o[3]->node[65]] 	92936212
scalar barabasi_100nodes_network.node[31].content_store 	p_hit[31] 	0.30447602924488
scalar barabasi_100nodes_network.node[31].content_store 	hits[31] 	130932
scalar barabasi_100nodes_network.node[31].content_store 	misses[31] 	299092
scalar barabasi_100nodes_network.node[31].content_store 	decision_yes[31] 	299092
scalar barabasi_100nodes_network.node[31].content_store 	decision_no[31] 	0
scalar barabasi_100nodes_network.node[31].content_store 	decision_ratio[31] 	1
scalar barabasi_100nodes_network.node[31].content_store 	"representation_breakdown[31] 0x7fff05a90168:0x7fff05a90168:0x7fff05a90168:0x7fff05a90168:0x7fff05a90168:" 	0
scalar barabasi_100nodes_network.node[31].proactive_component 	hdistance[31].proactive_component 	3.1514671129209
scalar barabasi_100nodes_network.node[31].proactive_component 	downloads[31].proactive_component 	510322
scalar barabasi_100nodes_network.node[31].proactive_component 	avg_time[31].proactive_component 	0
scalar barabasi_100nodes_network.node[32].core_layer 	interests[32] 	1934391
scalar barabasi_100nodes_network.node[32].core_layer 	repo_load[32] 	80712
scalar barabasi_100nodes_network.node[32].core_layer 	data[32] 	1444240
scalar barabasi_100nodes_network.node[32].core_layer 	slots_sent[face$o[1]->client[32]] 	104856109
scalar barabasi_100nodes_network.node[32].core_layer 	slots_sent[face$o[2]->node[2]] 	545183422
scalar barabasi_100nodes_network.node[32].core_layer 	slots_sent[face$o[3]->node[43]] 	27550879
scalar barabasi_100nodes_network.node[32].core_layer 	slots_sent[face$o[4]->node[64]] 	17973710
[...]
scalar barabasi_100nodes_network.client[8] 	avg_time[8].real 	0
scalar barabasi_100nodes_network.client[9] 	hdistance[9].real 	1.2336158223549
scalar barabasi_100nodes_network.client[9] 	downloads[9].real 	179594
scalar barabasi_100nodes_network.client[9] 	avg_time[9].real 	0
scalar barabasi_100nodes_network.client[10] 	hdistance[10].real 	1.1650592526079
scalar barabasi_100nodes_network.client[10] 	downloads[10].real 	180414
scalar barabasi_100nodes_network.client[10] 	avg_time[10].real 	0
scalar barabasi_100nodes_network.client[11] 	hdistance[11].real 	1.1373868492268
scalar barabasi_100nodes_network.client[11] 	downloads[11].real 	179959
scalar barabasi_100nodes_network.client[11] 	avg_time[11].real 	0
scalar barabasi_100nodes_network.client[12] 	hdistance[12].real 	1.4990476402642
scalar barabasi_100nodes_network.client[12] 	downloads[12].real 	179554
scalar barabasi_100nodes_network.client[12] 	avg_time[12].real 	0
scalar barabasi_100nodes_network.client[13] 	hdistance[13].real 	1.3543624756162
scalar barabasi_100nodes_network.client[13] 	downloads[13].real 	180448
scalar barabasi_100nodes_network.client[13] 	avg_time[13].real 	0
scalar barabasi_100nodes_network.client[14] 	hdistance[14].real 	1.4943837675629
scalar barabasi_100nodes_network.client[14] 	downloads[14].real 	180281
scalar barabasi_100nodes_network.client[14] 	avg_time[14].real 	0
scalar barabasi_100nodes_network.client[15] 	hdistance[15].real 	1.1994191889746
scalar barabasi_100nodes_network.client[15] 	downloads[15].real 	180093
scalar barabasi_100nodes_network.client[15] 	avg_time[15].real 	0
scalar barabasi_100nodes_network.client[16] 	hdistance[16].real 	1.3797053099806
scalar barabasi_100nodes_network.client[16] 	downloads[16].real 	179850
scalar barabasi_100nodes_network.client[16] 	avg_time[16].real 	0
scalar barabasi_100nodes_network.client[17] 	hdistance[17].real 	1.4946142535701
scalar barabasi_100nodes_network.client[17] 	downloads[17].real 	179548
scalar barabasi_100nodes_network.client[17] 	avg_time[17].real 	0
scalar barabasi_100nodes_network.client[18] 	hdistance[18].real 	1.2093335329574
scalar barabasi_100nodes_network.client[18] 	downloads[18].real 	180339
scalar barabasi_100nodes_network.client[18] 	avg_time[18].real 	0
scalar barabasi_100nodes_network.client[19] 	hdistance[19].real 	1.6457645947898
scalar barabasi_100nodes_network.client[19] 	downloads[19].real 	180030
scalar barabasi_100nodes_network.client[19] 	avg_time[19].real 	0
scalar barabasi_100nodes_network.client[20] 	hdistance[20].real 	1.5034514214517
scalar barabasi_100nodes_network.client[20] 	downloads[20].real 	179781
scalar barabasi_100nodes_network.client[20] 	avg_time[20].real 	0
scalar barabasi_100nodes_network.client[21] 	hdistance[21].real 	1.1929419068048
scalar barabasi_100nodes_network.client[21] 	downloads[21].real 	180417
scalar barabasi_100nodes_network.client[21] 	avg_time[21].real 	0
scalar barabasi_100nodes_network.client[22] 	hdistance[22].real 	1.1129541071687
scalar barabasi_100nodes_network.client[22] 	downloads[22].real 	179418
scalar barabasi_100nodes_network.client[22] 	avg_time[22].real 	0
scalar barabasi_100nodes_network.client[23] 	hdistance[23].real 	1.6356351755455
scalar barabasi_100nodes_network.client[23] 	downloads[23].real 	180580
scalar barabasi_100nodes_network.client[23] 	avg_time[23].real 	0
scalar barabasi_100nodes_network.client[24] 	hdistance[24].real 	1.2765517241379
scalar barabasi_100nodes_network.client[24] 	downloads[24].real 	179800
scalar barabasi_100nodes_network.client[24] 	avg_time[24].real 	0
scalar barabasi_100nodes_network.client[25] 	hdistance[25].real 	1.3113242120694
scalar barabasi_100nodes_network.client[25] 	downloads[25].real 	180092
scalar barabasi_100nodes_network.client[25] 	avg_time[25].real 	0
scalar barabasi_100nodes_network.client[26] 	hdistance[26].real 	1.2747594276122
scalar barabasi_100nodes_network.client[26] 	downloads[26].real 	180507
scalar barabasi_100nodes_network.client[26] 	avg_time[26].real 	0
scalar barabasi_100nodes_network.client[27] 	hdistance[27].real 	1.4159074475777
scalar barabasi_100nodes_network.client[27] 	downloads[27].real 	179790
scalar barabasi_100nodes_network.client[27] 	avg_time[27].real 	0
scalar barabasi_100nodes_network.client[28] 	hdistance[28].real 	1.113230789719
scalar barabasi_100nodes_network.client[28] 	downloads[28].real 	180216
scalar barabasi_100nodes_network.client[28] 	avg_time[28].real 	0
scalar barabasi_100nodes_network.client[29] 	hdistance[29].real 	1.2831863319216
scalar barabasi_100nodes_network.client[29] 	downloads[29].real 	180157
scalar barabasi_100nodes_network.client[29] 	avg_time[29].real 	0
scalar barabasi_100nodes_network.client[30] 	hdistance[30].real 	1.5438847881989
scalar barabasi_100nodes_network.client[30] 	downloads[30].real 	180051
scalar barabasi_100nodes_network.client[30] 	avg_time[30].real 	0
scalar barabasi_100nodes_network.client[31] 	hdistance[31].real 	1.5954497037481
scalar barabasi_100nodes_network.client[31] 	downloads[31].real 	180252
scalar barabasi_100nodes_network.client[31] 	avg_time[31].real 	0
scalar barabasi_100nodes_network.client[32] 	hdistance[32].real 	1.1522797993799
scalar barabasi_100nodes_network.client[32] 	downloads[32].real 	179643
scalar barabasi_100nodes_network.client[32] 	avg_time[32].real 	0
scalar barabasi_100nodes_network.client[33] 	hdistance[33].real 	1.2905766604421
scalar barabasi_100nodes_network.client[33] 	downloads[33].real 	179395
scalar barabasi_100nodes_network.client[33] 	avg_time[33].real 	0
scalar barabasi_100nodes_network.client[34] 	hdistance[34].real 	1.2876740501932
scalar barabasi_100nodes_network.client[34] 	downloads[34].real 	179905
scalar barabasi_100nodes_network.client[34] 	avg_time[34].real 	0
scalar barabasi_100nodes_network.client[35] 	hdistance[35].real 	1.3383370535714
scalar barabasi_100nodes_network.client[35] 	downloads[35].real 	179200
scalar barabasi_100nodes_network.client[35] 	avg_time[35].real 	0
scalar barabasi_100nodes_network.client[36] 	hdistance[36].real 	1.3085506826737
scalar barabasi_100nodes_network.client[36] 	downloads[36].real 	179588
scalar barabasi_100nodes_network.client[36] 	avg_time[36].real 	0
scalar barabasi_100nodes_network.client[37] 	hdistance[37].real 	1.1383040724685
scalar barabasi_100nodes_network.client[37] 	downloads[37].real 	180161
scalar barabasi_100nodes_network.client[37] 	avg_time[37].real 	0
scalar barabasi_100nodes_network.client[38] 	hdistance[38].real 	1.5355868534196
scalar barabasi_100nodes_network.client[38] 	downloads[38].real 	180488
scalar barabasi_100nodes_network.client[38] 	avg_time[38].real 	0
scalar barabasi_100nodes_network.client[39] 	hdistance[39].real 	1.5382955291291
scalar barabasi_100nodes_network.client[39] 	downloads[39].real 	179786
scalar barabasi_100nodes_network.client[39] 	avg_time[39].real 	0
scalar barabasi_100nodes_network.client[40] 	hdistance[40].real 	1.2288345534732
scalar barabasi_100nodes_network.client[40] 	downloads[40].real 	180034
scalar barabasi_100nodes_network.client[40] 	avg_time[40].real 	0
scalar barabasi_100nodes_network.client[41] 	hdistance[41].real 	1.2246306786627
scalar barabasi_100nodes_network.client[41] 	downloads[41].real 	180060
scalar barabasi_100nodes_network.client[41] 	avg_time[41].real 	0
scalar barabasi_100nodes_network.client[42] 	hdistance[42].real 	1.2900352508145
scalar barabasi_100nodes_network.client[42] 	downloads[42].real 	179854
scalar barabasi_100nodes_network.client[42] 	avg_time[42].real 	0
scalar barabasi_100nodes_network.client[43] 	hdistance[43].real 	1.152276505305
scalar barabasi_100nodes_network.client[43] 	downloads[43].real 	179266
scalar barabasi_100nodes_network.client[43] 	avg_time[43].real 	0
scalar barabasi_100nodes_network.client[44] 	hdistance[44].real 	1.1397223391761
scalar barabasi_100nodes_network.client[44] 	downloads[44].real 	180508
scalar barabasi_100nodes_network.client[44] 	avg_time[44].real 	0
scalar barabasi_100nodes_network.client[45] 	hdistance[45].real 	1.290174078872
scalar barabasi_100nodes_network.client[45] 	downloads[45].real 	179861
scalar barabasi_100nodes_network.client[45] 	avg_time[45].real 	0
scalar barabasi_100nodes_network.client[46] 	hdistance[46].real 	1.7905085534996
scalar barabasi_100nodes_network.client[46] 	downloads[46].real 	180394
scalar barabasi_100nodes_network.client[46] 	avg_time[46].real 	0
scalar barabasi_100nodes_network.client[47] 	hdistance[47].real 	1.4873352137027
scalar barabasi_100nodes_network.client[47] 	downloads[47].real 	180461
scalar barabasi_100nodes_network.client[47] 	avg_time[47].real 	0
scalar barabasi_100nodes_network.client[48] 	hdistance[48].real 	1.2838463119421
scalar barabasi_100nodes_network.client[48] 	downloads[48].real 	180027
scalar barabasi_100nodes_network.client[48] 	avg_time[48].real 	0
scalar barabasi_100nodes_network.client[49] 	hdistance[49].real 	1.5130263179715
scalar barabasi_100nodes_network.client[49] 	downloads[49].real 	180903
scalar barabasi_100nodes_network.client[49] 	avg_time[49].real 	0
scalar barabasi_100nodes_network.client[50] 	hdistance[50].real 	1.5408980508329
scalar barabasi_100nodes_network.client[50] 	downloads[50].real 	179923
scalar barabasi_100nodes_network.client[50] 	avg_time[50].real 	0
scalar barabasi_100nodes_network.client[51] 	hdistance[51].real 	1.7472098867239
scalar barabasi_100nodes_network.client[51] 	downloads[51].real 	179473
scalar barabasi_100nodes_network.client[51] 	avg_time[51].real 	0
scalar barabasi_100nodes_network.client[52] 	hdistance[52].real 	1.5284998940524
scalar barabasi_100nodes_network.client[52] 	downloads[52].real 	179334
scalar barabasi_100nodes_network.client[52] 	avg_time[52].real 	0
scalar barabasi_100nodes_network.client[53] 	hdistance[53].real 	1.2920313219714
scalar barabasi_100nodes_network.client[53] 	downloads[53].real 	180193
scalar barabasi_100nodes_network.client[53] 	avg_time[53].real 	0
scalar barabasi_100nodes_network.client[54] 	hdistance[54].real 	1.3270971535065
scalar barabasi_100nodes_network.client[54] 	downloads[54].real 	180292
scalar barabasi_100nodes_network.client[54] 	avg_time[54].real 	0
scalar barabasi_100nodes_network.client[55] 	hdistance[55].real 	1.2943485696517
scalar barabasi_100nodes_network.client[55] 	downloads[55].real 	180096
scalar barabasi_100nodes_network.client[55] 	avg_time[55].real 	0
scalar barabasi_100nodes_network.client[56] 	hdistance[56].real 	1.0440238999578
scalar barabasi_100nodes_network.client[56] 	downloads[56].real 	180084
scalar barabasi_100nodes_network.client[56] 	avg_time[56].real 	0
scalar barabasi_100nodes_network.client[57] 	hdistance[57].real 	1.1820068896049
scalar barabasi_100nodes_network.client[57] 	downloads[57].real 	179691
scalar barabasi_100nodes_network.client[57] 	avg_time[57].real 	0
scalar barabasi_100nodes_network.client[58] 	hdistance[58].real 	1.1702217576014
scalar barabasi_100nodes_network.client[58] 	downloads[58].real 	179836
scalar barabasi_100nodes_network.client[58] 	avg_time[58].real 	0
scalar barabasi_100nodes_network.client[59] 	hdistance[59].real 	1.2820501461859
scalar barabasi_100nodes_network.client[59] 	downloads[59].real 	180592
scalar barabasi_100nodes_network.client[59] 	avg_time[59].real 	0
scalar barabasi_100nodes_network.client[60] 	hdistance[60].real 	1.7354091883017
scalar barabasi_100nodes_network.client[60] 	downloads[60].real 	179685
scalar barabasi_100nodes_network.client[60] 	avg_time[60].real 	0
scalar barabasi_100nodes_network.client[61] 	hdistance[61].real 	1.5077780680157
scalar barabasi_100nodes_network.client[61] 	downloads[61].real 	179929
scalar barabasi_100nodes_network.client[61] 	avg_time[61].real 	0
scalar barabasi_100nodes_network.client[62] 	hdistance[62].real 	1.3425530140908
scalar barabasi_100nodes_network.client[62] 	downloads[62].real 	179905
scalar barabasi_100nodes_network.client[62] 	avg_time[62].real 	0
scalar barabasi_100nodes_network.client[63] 	hdistance[63].real 	1.7568013964613
scalar barabasi_100nodes_network.client[63] 	downloads[63].real 	181029
scalar barabasi_100nodes_network.client[63] 	avg_time[63].real 	0
scalar barabasi_100nodes_network.client[64] 	hdistance[64].real 	1.1090119266514
scalar barabasi_100nodes_network.client[64] 	downloads[64].real 	180017
scalar barabasi_100nodes_network.client[64] 	avg_time[64].real 	0
scalar barabasi_100nodes_network.client[65] 	hdistance[65].real 	1.8618356360727
scalar barabasi_100nodes_network.client[65] 	downloads[65].real 	180003
scalar barabasi_100nodes_network.client[65] 	avg_time[65].real 	0
scalar barabasi_100nodes_network.client[66] 	hdistance[66].real 	1.4983155639669
scalar barabasi_100nodes_network.client[66] 	downloads[66].real 	180179
scalar barabasi_100nodes_network.client[66] 	avg_time[66].real 	0
scalar barabasi_100nodes_network.client[67] 	hdistance[67].real 	1.5180732284561
scalar barabasi_100nodes_network.client[67] 	downloads[67].real 	179575
scalar barabasi_100nodes_network.client[67] 	avg_time[67].real 	0
scalar barabasi_100nodes_network.client[68] 	hdistance[68].real 	1.2974278308262
scalar barabasi_100nodes_network.client[68] 	downloads[68].real 	180548
scalar barabasi_100nodes_network.client[68] 	avg_time[68].real 	0
scalar barabasi_100nodes_network.client[69] 	hdistance[69].real 	1.2840298914404
scalar barabasi_100nodes_network.client[69] 	downloads[69].real 	179717
scalar barabasi_100nodes_network.client[69] 	avg_time[69].real 	0
scalar barabasi_100nodes_network.client[70] 	hdistance[70].real 	1.7668614032159
scalar barabasi_100nodes_network.client[70] 	downloads[70].real 	179730
scalar barabasi_100nodes_network.client[70] 	avg_time[70].real 	0
scalar barabasi_100nodes_network.client[71] 	hdistance[71].real 	1.4012210202649
scalar barabasi_100nodes_network.client[71] 	downloads[71].real 	179522
scalar barabasi_100nodes_network.client[71] 	avg_time[71].real 	0
scalar barabasi_100nodes_network.client[72] 	hdistance[72].real 	1.288374855671
scalar barabasi_100nodes_network.client[72] 	downloads[72].real 	180144
scalar barabasi_100nodes_network.client[72] 	avg_time[72].real 	0
scalar barabasi_100nodes_network.client[73] 	hdistance[73].real 	1.1682928186015
scalar barabasi_100nodes_network.client[73] 	downloads[73].real 	179770
scalar barabasi_100nodes_network.client[73] 	avg_time[73].real 	0
scalar barabasi_100nodes_network.client[74] 	hdistance[74].real 	1.1447256168497
scalar barabasi_100nodes_network.client[74] 	downloads[74].real 	180514
scalar barabasi_100nodes_network.client[74] 	avg_time[74].real 	0
scalar barabasi_100nodes_network.client[75] 	hdistance[75].real 	1.5324436493341
scalar barabasi_100nodes_network.client[75] 	downloads[75].real 	179989
scalar barabasi_100nodes_network.client[75] 	avg_time[75].real 	0
scalar barabasi_100nodes_network.client[76] 	hdistance[76].real 	1.3884310856151
scalar barabasi_100nodes_network.client[76] 	downloads[76].real 	179723
scalar barabasi_100nodes_network.client[76] 	avg_time[76].real 	0
scalar barabasi_100nodes_network.client[77] 	hdistance[77].real 	1.3417365551219
scalar barabasi_100nodes_network.client[77] 	downloads[77].real 	180645
scalar barabasi_100nodes_network.client[77] 	avg_time[77].real 	0
scalar barabasi_100nodes_network.client[78] 	hdistance[78].real 	1.6022417499612
scalar barabasi_100nodes_network.client[78] 	downloads[78].real 	180484
scalar barabasi_100nodes_network.client[78] 	avg_time[78].real 	0
scalar barabasi_100nodes_network.client[79] 	hdistance[79].real 	1.2852139840268
scalar barabasi_100nodes_network.client[79] 	downloads[79].real 	180177
scalar barabasi_100nodes_network.client[79] 	avg_time[79].real 	0
scalar barabasi_100nodes_network.client[80] 	hdistance[80].real 	1.757467397047
scalar barabasi_100nodes_network.client[80] 	downloads[80].real 	179815
scalar barabasi_100nodes_network.client[80] 	avg_time[80].real 	0
scalar barabasi_100nodes_network.client[81] 	hdistance[81].real 	1.5673807763093
scalar barabasi_100nodes_network.client[81] 	downloads[81].real 	179851
scalar barabasi_100nodes_network.client[81] 	avg_time[81].real 	0
scalar barabasi_100nodes_network.client[82] 	hdistance[82].real 	1.9878467606133
scalar barabasi_100nodes_network.client[82] 	downloads[82].real 	180528
scalar barabasi_100nodes_network.client[82] 	avg_time[82].real 	0
scalar barabasi_100nodes_network.client[83] 	hdistance[83].real 	1.7404011046525
scalar barabasi_100nodes_network.client[83] 	downloads[83].real 	179604
scalar barabasi_100nodes_network.client[83] 	avg_time[83].real 	0
scalar barabasi_100nodes_network.client[84] 	hdistance[84].real 	1.5983911132405
scalar barabasi_100nodes_network.client[84] 	downloads[84].real 	179503
scalar barabasi_100nodes_network.client[84] 	avg_time[84].real 	0
scalar barabasi_100nodes_network.client[85] 	hdistance[85].real 	1.5094230598275
scalar barabasi_100nodes_network.client[85] 	downloads[85].real 	179984
scalar barabasi_100nodes_network.client[85] 	avg_time[85].real 	0
scalar barabasi_100nodes_network.client[86] 	hdistance[86].real 	1.7509497983591
scalar barabasi_100nodes_network.client[86] 	downloads[86].real 	179775
scalar barabasi_100nodes_network.client[86] 	avg_time[86].real 	0
scalar barabasi_100nodes_network.client[87] 	hdistance[87].real 	1.7603172484371
scalar barabasi_100nodes_network.client[87] 	downloads[87].real 	179796
scalar barabasi_100nodes_network.client[87] 	avg_time[87].real 	0
scalar barabasi_100nodes_network.client[88] 	hdistance[88].real 	1.7605618938645
scalar barabasi_100nodes_network.client[88] 	downloads[88].real 	180034
scalar barabasi_100nodes_network.client[88] 	avg_time[88].real 	0
scalar barabasi_100nodes_network.client[89] 	hdistance[89].real 	1.7694962349607
scalar barabasi_100nodes_network.client[89] 	downloads[89].real 	179945
scalar barabasi_100nodes_network.client[89] 	avg_time[89].real 	0
scalar barabasi_100nodes_network.client[90] 	hdistance[90].real 	1.3487915121962
scalar barabasi_100nodes_network.client[90] 	downloads[90].real 	179646
scalar barabasi_100nodes_network.client[90] 	avg_time[90].real 	0
scalar barabasi_100nodes_network.client[91] 	hdistance[91].real 	1.2855684686434
scalar barabasi_100nodes_network.client[91] 	downloads[91].real 	180265
scalar barabasi_100nodes_network.client[91] 	avg_time[91].real 	0
scalar barabasi_100nodes_network.client[92] 	hdistance[92].real 	1.7901430842607
scalar barabasi_100nodes_network.client[92] 	downloads[92].real 	179265
scalar barabasi_100nodes_network.client[92] 	avg_time[92].real 	0
scalar barabasi_100nodes_network.client[93] 	hdistance[93].real 	1.143272899973
scalar barabasi_100nodes_network.client[93] 	downloads[93].real 	181081
scalar barabasi_100nodes_network.client[93] 	avg_time[93].real 	0
scalar barabasi_100nodes_network.client[94] 	hdistance[94].real 	1.3985016648169
scalar barabasi_100nodes_network.client[94] 	downloads[94].real 	180200
scalar barabasi_100nodes_network.client[94] 	avg_time[94].real 	0
scalar barabasi_100nodes_network.client[95] 	hdistance[95].real 	1.9946860064837
scalar barabasi_100nodes_network.client[95] 	downloads[95].real 	179526
scalar barabasi_100nodes_network.client[95] 	avg_time[95].real 	0
scalar barabasi_100nodes_network.client[96] 	hdistance[96].real 	1.5589874683931
scalar barabasi_100nodes_network.client[96] 	downloads[96].real 	179945
scalar barabasi_100nodes_network.client[96] 	avg_time[96].real 	0
scalar barabasi_100nodes_network.client[97] 	hdistance[97].real 	1.5496808315602
scalar barabasi_100nodes_network.client[97] 	downloads[97].real 	179999
scalar barabasi_100nodes_network.client[97] 	avg_time[97].real 	0
scalar barabasi_100nodes_network.client[98] 	hdistance[98].real 	1.9902999950029
scalar barabasi_100nodes_network.client[98] 	downloads[98].real 	180103
scalar barabasi_100nodes_network.client[98] 	avg_time[98].real 	0
scalar barabasi_100nodes_network.client[99] 	hdistance[99].real 	1.4741772559827
scalar barabasi_100nodes_network.client[99] 	downloads[99].real 	179977
scalar barabasi_100nodes_network.client[99] 	avg_time[99].real 	0
