version 2
run General-1-20141007-10:49:45-14771
attr D costaware0.1
attr F spr
attr R lru
attr a 1
attr configname General
attr csize 1e3
attr ctlg 1e5
attr datetime 20141007-10:49:45
attr experiment General
attr inifile omnetpp.ini
attr iterationvars "$net=abilene_cost, $rep=5, $priceratiovalue=10, $weights=0.333_0.333_0.334, $lambda=100, $a=1, $ctlg=1e5, $F=spr, $ttl=10, $D=costaware0.1, $xi=1, $R=lru, $csize=1e3, $pricebits=0, $window=60, $variance=0.05, $mytime=1800"
attr iterationvars2 "$net=abilene_cost, $rep=5, $priceratiovalue=10, $weights=0.333_0.333_0.334, $lambda=100, $a=1, $ctlg=1e5, $F=spr, $ttl=10, $D=costaware0.1, $xi=1, $R=lru, $csize=1e3, $pricebits=0, $window=60, $variance=0.05, $mytime=1800, $repetition=0"
attr lambda 100
attr measurement "$net=abilene_cost, $rep=5, $priceratiovalue=10, $weights=0.333_0.333_0.334, $lambda=100, $a=1, $ctlg=1e5, $F=spr, $ttl=10, $D=costaware0.1, $xi=1, $R=lru, $csize=1e3, $pricebits=0, $window=60, $variance=0.05, $mytime=1800"
attr mytime 1800
attr net abilene_cost
attr network networks.${net=abilene_cost,geant_cost}_network
attr pricebits 0
attr priceratiovalue 10
attr processid 14771
attr rep 5
attr repetition 0
attr replication #0
attr resultdir results
attr runnumber 1
attr seedset 5
attr ttl 10
attr variance 0.05
attr weights 0.333_0.333_0.334
attr window 60
attr xi 1

scalar . 	a 	1
scalar . 	csize 	1e3
scalar . 	ctlg 	1e5
scalar . 	lambda 	100
scalar . 	mytime 	1800
scalar . 	pricebits 	0
scalar . 	priceratiovalue 	10
scalar . 	rep 	5
scalar . 	ttl 	10
scalar . 	variance 	0.05
scalar . 	window 	60
scalar . 	xi 	1
scalar abilene_cost_network.content_distribution 	repo-0 	9
scalar abilene_cost_network.content_distribution 	repo-1 	5
scalar abilene_cost_network.content_distribution 	repo-2 	1
scalar abilene_cost_network.content_distribution 	client-0 	4
scalar abilene_cost_network.content_distribution 	client-1 	9
scalar abilene_cost_network.content_distribution 	client-2 	0
scalar abilene_cost_network.content_distribution 	repo-0_card 	33098
scalar abilene_cost_network.content_distribution 	repo-0_price 	1
scalar abilene_cost_network.content_distribution 	repo-1_card 	33495
scalar abilene_cost_network.content_distribution 	repo-1_price 	10
scalar abilene_cost_network.content_distribution 	repo-2_card 	33407
scalar abilene_cost_network.content_distribution 	repo-2_price 	0
scalar abilene_cost_network.statistics 	repo_popularity[0] 	0.31037770261398
scalar abilene_cost_network.statistics 	repo_popularity[1] 	0.29913869324176
scalar abilene_cost_network.statistics 	repo_popularity[2] 	0.39048360414427
scalar abilene_cost_network.statistics 	stabilization_time 	239.3
scalar abilene_cost_network.statistics 	p_hit 	0.076587575210874
scalar abilene_cost_network.statistics 	interests 	153991.27272727
scalar abilene_cost_network.statistics 	data 	104901.27272727
scalar abilene_cost_network.statistics 	hdistance 	2.9227726906812
scalar abilene_cost_network.statistics 	avg_time 	0.014350654312
scalar abilene_cost_network.statistics 	downloads 	532635
scalar abilene_cost_network.statistics 	total_cost 	1041709
scalar abilene_cost_network.statistics 	total_replicas 	100000
scalar abilene_cost_network.statistics 	inner_hit 	0.24357205215579
scalar abilene_cost_network.node[0].core_layer 	interests[0] 	180911
scalar abilene_cost_network.node[0].core_layer 	data[0] 	174682
scalar abilene_cost_network.node[0].core_layer 	repo_int[0] 	402900
scalar abilene_cost_network.node[0].content_store 	p_hit[0] 	0.022171122817297
scalar abilene_cost_network.node[0].content_store 	hits[0] 	4011
scalar abilene_cost_network.node[0].content_store 	misses[0] 	176900
scalar abilene_cost_network.node[0].content_store 	decision_yes[0] 	9063
scalar abilene_cost_network.node[0].content_store 	decision_no[0] 	165619
scalar abilene_cost_network.node[0].content_store 	decision_ratio[0] 	0.051882849978819
scalar abilene_cost_network.node[0].content_store 	correction_factor[0] 	0.027225701061802
scalar abilene_cost_network.node[0].content_store 	kappa[0] 	1
scalar abilene_cost_network.node[1].core_layer 	interests[1] 	256309
scalar abilene_cost_network.node[1].core_layer 	repo_load[1] 	206597
scalar abilene_cost_network.node[1].core_layer 	data[1] 	47323
scalar abilene_cost_network.node[1].content_store 	p_hit[1] 	0.0093207807763286
scalar abilene_cost_network.node[1].content_store 	hits[1] 	2389
scalar abilene_cost_network.node[1].content_store 	misses[1] 	253920
scalar abilene_cost_network.node[1].content_store 	decision_yes[1] 	8119
scalar abilene_cost_network.node[1].content_store 	decision_no[1] 	245801
scalar abilene_cost_network.node[1].content_store 	decision_ratio[1] 	0.031974637681159
scalar abilene_cost_network.node[1].content_store 	correction_factor[1] 	0.027225701061802
scalar abilene_cost_network.node[1].content_store 	kappa[1] 	1
scalar abilene_cost_network.node[2].core_layer 	interests[2] 	169857
scalar abilene_cost_network.node[2].core_layer 	data[2] 	160448
scalar abilene_cost_network.node[2].content_store 	p_hit[2] 	0.055387767357248
scalar abilene_cost_network.node[2].content_store 	hits[2] 	9408
scalar abilene_cost_network.node[2].content_store 	misses[2] 	160449
scalar abilene_cost_network.node[2].content_store 	decision_yes[2] 	9154
scalar abilene_cost_network.node[2].content_store 	decision_no[2] 	151294
scalar abilene_cost_network.node[2].content_store 	decision_ratio[2] 	0.057052752293578
scalar abilene_cost_network.node[2].content_store 	correction_factor[2] 	0.027225701061802
scalar abilene_cost_network.node[2].content_store 	kappa[2] 	1
scalar abilene_cost_network.node[3].core_layer 	interests[3] 	161604
scalar abilene_cost_network.node[3].core_layer 	data[3] 	158493
scalar abilene_cost_network.node[3].content_store 	p_hit[3] 	0.01924457315413
scalar abilene_cost_network.node[3].content_store 	hits[3] 	3110
scalar abilene_cost_network.node[3].content_store 	misses[3] 	158494
scalar abilene_cost_network.node[3].content_store 	decision_yes[3] 	9116
scalar abilene_cost_network.node[3].content_store 	decision_no[3] 	149377
scalar abilene_cost_network.node[3].content_store 	decision_ratio[3] 	0.057516735754891
scalar abilene_cost_network.node[3].content_store 	correction_factor[3] 	0.027225701061802
scalar abilene_cost_network.node[3].content_store 	kappa[3] 	1
scalar abilene_cost_network.node[4].core_layer 	interests[4] 	215692
scalar abilene_cost_network.node[4].core_layer 	data[4] 	199867
scalar abilene_cost_network.node[4].content_store 	p_hit[4] 	0.061810359215919
scalar abilene_cost_network.node[4].content_store 	hits[4] 	13332
scalar abilene_cost_network.node[4].content_store 	misses[4] 	202360
scalar abilene_cost_network.node[4].content_store 	decision_yes[4] 	18385
scalar abilene_cost_network.node[4].content_store 	decision_no[4] 	181482
scalar abilene_cost_network.node[4].content_store 	decision_ratio[4] 	0.091986170803584
scalar abilene_cost_network.node[4].content_store 	correction_factor[4] 	0.027225701061802
scalar abilene_cost_network.node[4].content_store 	kappa[4] 	1
scalar abilene_cost_network.node[5].core_layer 	interests[5] 	116748
scalar abilene_cost_network.node[5].core_layer 	repo_load[5] 	93934
scalar abilene_cost_network.node[5].core_layer 	data[5] 	0
scalar abilene_cost_network.node[5].content_store 	p_hit[5] 	0.19541234111077
scalar abilene_cost_network.node[5].content_store 	hits[5] 	22814
scalar abilene_cost_network.node[5].content_store 	misses[5] 	93934
scalar abilene_cost_network.node[5].content_store 	decision_yes[5] 	25468
scalar abilene_cost_network.node[5].content_store 	decision_no[5] 	68466
scalar abilene_cost_network.node[5].content_store 	decision_ratio[5] 	0.27112653565269
scalar abilene_cost_network.node[5].content_store 	correction_factor[5] 	0.027225701061802
scalar abilene_cost_network.node[5].content_store 	kappa[5] 	1
scalar abilene_cost_network.node[6].core_layer 	interests[6] 	42504
scalar abilene_cost_network.node[6].core_layer 	data[6] 	40077
scalar abilene_cost_network.node[6].content_store 	p_hit[6] 	0.057100508187465
scalar abilene_cost_network.node[6].content_store 	hits[6] 	2427
scalar abilene_cost_network.node[6].content_store 	misses[6] 	40077
scalar abilene_cost_network.node[6].content_store 	decision_yes[6] 	8266
scalar abilene_cost_network.node[6].content_store 	decision_no[6] 	31811
scalar abilene_cost_network.node[6].content_store 	decision_ratio[6] 	0.20625296304614
scalar abilene_cost_network.node[6].content_store 	correction_factor[6] 	0.027225701061802
scalar abilene_cost_network.node[6].content_store 	kappa[6] 	1
scalar abilene_cost_network.node[7].core_layer 	interests[7] 	45740
scalar abilene_cost_network.node[7].core_layer 	data[7] 	42504
scalar abilene_cost_network.node[7].content_store 	p_hit[7] 	0.070747704416266
scalar abilene_cost_network.node[7].content_store 	hits[7] 	3236
scalar abilene_cost_network.node[7].content_store 	misses[7] 	42504
scalar abilene_cost_network.node[7].content_store 	decision_yes[7] 	8286
scalar abilene_cost_network.node[7].content_store 	decision_no[7] 	34218
scalar abilene_cost_network.node[7].content_store 	decision_ratio[7] 	0.19494635798984
scalar abilene_cost_network.node[7].content_store 	correction_factor[7] 	0.027225701061802
scalar abilene_cost_network.node[7].content_store 	kappa[7] 	1
scalar abilene_cost_network.node[8].core_layer 	interests[8] 	102478
scalar abilene_cost_network.node[8].core_layer 	data[8] 	98202
scalar abilene_cost_network.node[8].content_store 	p_hit[8] 	0.041716270809344
scalar abilene_cost_network.node[8].content_store 	hits[8] 	4275
scalar abilene_cost_network.node[8].content_store 	misses[8] 	98203
scalar abilene_cost_network.node[8].content_store 	decision_yes[8] 	9245
scalar abilene_cost_network.node[8].content_store 	decision_no[8] 	88957
scalar abilene_cost_network.node[8].content_store 	decision_ratio[8] 	0.094142685485021
scalar abilene_cost_network.node[8].content_store 	correction_factor[8] 	0.027225701061802
scalar abilene_cost_network.node[8].content_store 	kappa[8] 	1
scalar abilene_cost_network.node[9].core_layer 	interests[9] 	277941
scalar abilene_cost_network.node[9].core_layer 	repo_load[9] 	102369
scalar abilene_cost_network.node[9].core_layer 	data[9] 	117721
scalar abilene_cost_network.node[9].content_store 	p_hit[9] 	0.19862848590168
scalar abilene_cost_network.node[9].content_store 	hits[9] 	55207
scalar abilene_cost_network.node[9].content_store 	misses[9] 	222734
scalar abilene_cost_network.node[9].content_store 	decision_yes[9] 	10836
scalar abilene_cost_network.node[9].content_store 	decision_no[9] 	209254
scalar abilene_cost_network.node[9].content_store 	decision_ratio[9] 	0.049234404107411
scalar abilene_cost_network.node[9].content_store 	correction_factor[9] 	0.027225701061802
scalar abilene_cost_network.node[9].content_store 	kappa[9] 	1
scalar abilene_cost_network.node[10].core_layer 	interests[10] 	124120
scalar abilene_cost_network.node[10].core_layer 	data[10] 	114597
scalar abilene_cost_network.node[10].content_store 	p_hit[10] 	0.076724137931034
scalar abilene_cost_network.node[10].content_store 	hits[10] 	9523
scalar abilene_cost_network.node[10].content_store 	misses[10] 	114597
scalar abilene_cost_network.node[10].content_store 	decision_yes[10] 	816
scalar abilene_cost_network.node[10].content_store 	decision_no[10] 	113781
scalar abilene_cost_network.node[10].content_store 	decision_ratio[10] 	0.0071206052514464
scalar abilene_cost_network.node[10].content_store 	correction_factor[10] 	0.027225701061802
scalar abilene_cost_network.node[10].content_store 	kappa[10] 	1
scalar abilene_cost_network.client[0] 	hdistance[0] 	2.8191982898043
scalar abilene_cost_network.client[0] 	downloads[0] 	178693
scalar abilene_cost_network.client[0] 	avg_time[0] 	0.014748717393
scalar abilene_cost_network.client[4] 	hdistance[4] 	3.4032001444353
scalar abilene_cost_network.client[4] 	downloads[4] 	177242
scalar abilene_cost_network.client[4] 	avg_time[4] 	0.015209924843
scalar abilene_cost_network.client[9] 	hdistance[9] 	2.5459196378041
scalar abilene_cost_network.client[9] 	downloads[9] 	176700
scalar abilene_cost_network.client[9] 	avg_time[9] 	0.0130933207
