version 2
run General-1-20141007-11:11:55-15306
attr D costaware0.1
attr F spr
attr R lru
attr a 1
attr configname General
attr csize 1e3
attr ctlg 1e5
attr datetime 20141007-11:11:55
attr experiment General
attr inifile omnetpp.ini
attr iterationvars "$net=abilene_cost, $rep=2, $priceratiovalue=10, $weights=0.333_0.333_0.334, $lambda=100, $a=1, $ctlg=1e5, $F=spr, $ttl=10, $D=costaware0.1, $xi=1, $R=lru, $csize=1e3, $pricebits=0, $window=60, $variance=0.05, $mytime=1800"
attr iterationvars2 "$net=abilene_cost, $rep=2, $priceratiovalue=10, $weights=0.333_0.333_0.334, $lambda=100, $a=1, $ctlg=1e5, $F=spr, $ttl=10, $D=costaware0.1, $xi=1, $R=lru, $csize=1e3, $pricebits=0, $window=60, $variance=0.05, $mytime=1800, $repetition=0"
attr lambda 100
attr measurement "$net=abilene_cost, $rep=2, $priceratiovalue=10, $weights=0.333_0.333_0.334, $lambda=100, $a=1, $ctlg=1e5, $F=spr, $ttl=10, $D=costaware0.1, $xi=1, $R=lru, $csize=1e3, $pricebits=0, $window=60, $variance=0.05, $mytime=1800"
attr mytime 1800
attr net abilene_cost
attr network networks.${net=abilene_cost,geant_cost}_network
attr pricebits 0
attr priceratiovalue 10
attr processid 15306
attr rep 2
attr repetition 0
attr replication #0
attr resultdir results
attr runnumber 1
attr seedset 2
attr ttl 10
attr variance 0.05
attr weights 0.333_0.333_0.334
attr window 60
attr xi 1

scalar . 	a 	1
scalar . 	csize 	1e3
scalar . 	ctlg 	1e5
scalar . 	lambda 	100
scalar . 	mytime 	1800
scalar . 	pricebits 	0
scalar . 	priceratiovalue 	10
scalar . 	rep 	2
scalar . 	ttl 	10
scalar . 	variance 	0.05
scalar . 	window 	60
scalar . 	xi 	1
scalar abilene_cost_network.content_distribution 	repo-0 	4
scalar abilene_cost_network.content_distribution 	repo-1 	9
scalar abilene_cost_network.content_distribution 	repo-2 	6
scalar abilene_cost_network.content_distribution 	client-0 	3
scalar abilene_cost_network.content_distribution 	client-1 	7
scalar abilene_cost_network.content_distribution 	client-2 	9
scalar abilene_cost_network.content_distribution 	repo-0_card 	33329
scalar abilene_cost_network.content_distribution 	repo-0_price 	1
scalar abilene_cost_network.content_distribution 	repo-1_card 	33052
scalar abilene_cost_network.content_distribution 	repo-1_price 	10
scalar abilene_cost_network.content_distribution 	repo-2_card 	33619
scalar abilene_cost_network.content_distribution 	repo-2_price 	0
scalar abilene_cost_network.statistics 	repo_popularity[0] 	0.33984204835506
scalar abilene_cost_network.statistics 	repo_popularity[1] 	0.39407385110283
scalar abilene_cost_network.statistics 	repo_popularity[2] 	0.26608410054213
scalar abilene_cost_network.statistics 	stabilization_time 	36060
scalar abilene_cost_network.statistics 	p_hit 	0.13306690678781
scalar abilene_cost_network.statistics 	interests 	134780.45454545
scalar abilene_cost_network.statistics 	data 	85697.545454545
scalar abilene_cost_network.statistics 	hdistance 	2.3929280004232
scalar abilene_cost_network.statistics 	avg_time 	0.012384737141
scalar abilene_cost_network.statistics 	downloads 	535354
scalar abilene_cost_network.statistics 	total_cost 	1121488
scalar abilene_cost_network.statistics 	total_replicas 	100000
scalar abilene_cost_network.statistics 	inner_hit 	0.36977588660961
scalar abilene_cost_network.node[0].core_layer 	interests[0] 	0
scalar abilene_cost_network.node[0].core_layer 	data[0] 	0
scalar abilene_cost_network.node[0].core_layer 	repo_int[0] 	337393
scalar abilene_cost_network.node[0].content_store 	p_hit[0] 	-nan
scalar abilene_cost_network.node[0].content_store 	hits[0] 	0
scalar abilene_cost_network.node[0].content_store 	misses[0] 	0
scalar abilene_cost_network.node[0].content_store 	decision_yes[0] 	0
scalar abilene_cost_network.node[0].content_store 	decision_no[0] 	0
scalar abilene_cost_network.node[0].content_store 	decision_ratio[0] 	0
scalar abilene_cost_network.node[0].content_store 	correction_factor[0] 	0.027225701061802
scalar abilene_cost_network.node[0].content_store 	kappa[0] 	1
scalar abilene_cost_network.node[1].core_layer 	interests[1] 	0
scalar abilene_cost_network.node[1].core_layer 	data[1] 	0
scalar abilene_cost_network.node[1].content_store 	p_hit[1] 	-nan
scalar abilene_cost_network.node[1].content_store 	hits[1] 	0
scalar abilene_cost_network.node[1].content_store 	misses[1] 	0
scalar abilene_cost_network.node[1].content_store 	decision_yes[1] 	0
scalar abilene_cost_network.node[1].content_store 	decision_no[1] 	0
scalar abilene_cost_network.node[1].content_store 	decision_ratio[1] 	0
scalar abilene_cost_network.node[1].content_store 	correction_factor[1] 	0.027225701061802
scalar abilene_cost_network.node[1].content_store 	kappa[1] 	1
scalar abilene_cost_network.node[2].core_layer 	interests[2] 	126659
scalar abilene_cost_network.node[2].core_layer 	data[2] 	119661
scalar abilene_cost_network.node[2].content_store 	p_hit[2] 	0.055250712543128
scalar abilene_cost_network.node[2].content_store 	hits[2] 	6998
scalar abilene_cost_network.node[2].content_store 	misses[2] 	119661
scalar abilene_cost_network.node[2].content_store 	decision_yes[2] 	9543
scalar abilene_cost_network.node[2].content_store 	decision_no[2] 	110118
scalar abilene_cost_network.node[2].content_store 	decision_ratio[2] 	0.079750294582195
scalar abilene_cost_network.node[2].content_store 	correction_factor[2] 	0.027225701061802
scalar abilene_cost_network.node[2].content_store 	kappa[2] 	1
scalar abilene_cost_network.node[3].core_layer 	interests[3] 	297932
scalar abilene_cost_network.node[3].core_layer 	data[3] 	259734
scalar abilene_cost_network.node[3].content_store 	p_hit[3] 	0.12121893586456
scalar abilene_cost_network.node[3].content_store 	hits[3] 	36115
scalar abilene_cost_network.node[3].content_store 	misses[3] 	261817
scalar abilene_cost_network.node[3].content_store 	decision_yes[3] 	11175
scalar abilene_cost_network.node[3].content_store 	decision_no[3] 	248559
scalar abilene_cost_network.node[3].content_store 	decision_ratio[3] 	0.043024786897364
scalar abilene_cost_network.node[3].content_store 	correction_factor[3] 	0.027225701061802
scalar abilene_cost_network.node[3].content_store 	kappa[3] 	1
scalar abilene_cost_network.node[4].core_layer 	interests[4] 	145624
scalar abilene_cost_network.node[4].core_layer 	repo_load[4] 	91758
scalar abilene_cost_network.node[4].core_layer 	data[4] 	0
scalar abilene_cost_network.node[4].content_store 	p_hit[4] 	0.36989781904082
scalar abilene_cost_network.node[4].content_store 	hits[4] 	53866
scalar abilene_cost_network.node[4].content_store 	misses[4] 	91758
scalar abilene_cost_network.node[4].content_store 	decision_yes[4] 	2475
scalar abilene_cost_network.node[4].content_store 	decision_no[4] 	89283
scalar abilene_cost_network.node[4].content_store 	decision_ratio[4] 	0.026973124959132
scalar abilene_cost_network.node[4].content_store 	correction_factor[4] 	0.027225701061802
scalar abilene_cost_network.node[4].content_store 	kappa[4] 	1
scalar abilene_cost_network.node[5].core_layer 	interests[5] 	0
scalar abilene_cost_network.node[5].core_layer 	data[5] 	0
scalar abilene_cost_network.node[5].content_store 	p_hit[5] 	-nan
scalar abilene_cost_network.node[5].content_store 	hits[5] 	0
scalar abilene_cost_network.node[5].content_store 	misses[5] 	0
scalar abilene_cost_network.node[5].content_store 	decision_yes[5] 	0
scalar abilene_cost_network.node[5].content_store 	decision_no[5] 	0
scalar abilene_cost_network.node[5].content_store 	decision_ratio[5] 	0
scalar abilene_cost_network.node[5].content_store 	correction_factor[5] 	0.027225701061802
scalar abilene_cost_network.node[5].content_store 	kappa[5] 	1
scalar abilene_cost_network.node[6].core_layer 	interests[6] 	142662
scalar abilene_cost_network.node[6].core_layer 	repo_load[6] 	142662
scalar abilene_cost_network.node[6].core_layer 	data[6] 	0
scalar abilene_cost_network.node[6].content_store 	p_hit[6] 	0
scalar abilene_cost_network.node[6].content_store 	hits[6] 	0
scalar abilene_cost_network.node[6].content_store 	misses[6] 	142662
scalar abilene_cost_network.node[6].content_store 	decision_yes[6] 	0
scalar abilene_cost_network.node[6].content_store 	decision_no[6] 	142662
scalar abilene_cost_network.node[6].content_store 	decision_ratio[6] 	0
scalar abilene_cost_network.node[6].content_store 	correction_factor[6] 	0.027225701061802
scalar abilene_cost_network.node[6].content_store 	kappa[6] 	1
scalar abilene_cost_network.node[7].core_layer 	interests[7] 	275357
scalar abilene_cost_network.node[7].core_layer 	data[7] 	267687
scalar abilene_cost_network.node[7].content_store 	p_hit[7] 	0.021873422502424
scalar abilene_cost_network.node[7].content_store 	hits[7] 	6023
scalar abilene_cost_network.node[7].content_store 	misses[7] 	269334
scalar abilene_cost_network.node[7].content_store 	decision_yes[7] 	9645
scalar abilene_cost_network.node[7].content_store 	decision_no[7] 	258042
scalar abilene_cost_network.node[7].content_store 	decision_ratio[7] 	0.036030886819308
scalar abilene_cost_network.node[7].content_store 	correction_factor[7] 	0.027225701061802
scalar abilene_cost_network.node[7].content_store 	kappa[7] 	1
scalar abilene_cost_network.node[8].core_layer 	interests[8] 	234195
scalar abilene_cost_network.node[8].core_layer 	data[8] 	187951
scalar abilene_cost_network.node[8].content_store 	p_hit[8] 	0.19667798202353
scalar abilene_cost_network.node[8].content_store 	hits[8] 	46061
scalar abilene_cost_network.node[8].content_store 	misses[8] 	188134
scalar abilene_cost_network.node[8].content_store 	decision_yes[8] 	18263
scalar abilene_cost_network.node[8].content_store 	decision_no[8] 	169688
scalar abilene_cost_network.node[8].content_store 	decision_ratio[8] 	0.097168942969178
scalar abilene_cost_network.node[8].content_store 	correction_factor[8] 	0.027225701061802
scalar abilene_cost_network.node[8].content_store 	kappa[8] 	1
scalar abilene_cost_network.node[9].core_layer 	interests[9] 	260156
scalar abilene_cost_network.node[9].core_layer 	repo_load[9] 	102973
scalar abilene_cost_network.node[9].core_layer 	data[9] 	107640
scalar abilene_cost_network.node[9].content_store 	p_hit[9] 	0.18535032826458
scalar abilene_cost_network.node[9].content_store 	hits[9] 	48220
scalar abilene_cost_network.node[9].content_store 	misses[9] 	211936
scalar abilene_cost_network.node[9].content_store 	decision_yes[9] 	28552
scalar abilene_cost_network.node[9].content_store 	decision_no[9] 	182061
scalar abilene_cost_network.node[9].content_store 	decision_ratio[9] 	0.13556618062513
scalar abilene_cost_network.node[9].content_store 	correction_factor[9] 	0.027225701061802
scalar abilene_cost_network.node[9].content_store 	kappa[9] 	1
scalar abilene_cost_network.node[10].core_layer 	interests[10] 	0
scalar abilene_cost_network.node[10].core_layer 	data[10] 	0
scalar abilene_cost_network.node[10].content_store 	p_hit[10] 	-nan
scalar abilene_cost_network.node[10].content_store 	hits[10] 	0
scalar abilene_cost_network.node[10].content_store 	misses[10] 	0
scalar abilene_cost_network.node[10].content_store 	decision_yes[10] 	0
scalar abilene_cost_network.node[10].content_store 	decision_no[10] 	0
scalar abilene_cost_network.node[10].content_store 	decision_ratio[10] 	0
scalar abilene_cost_network.node[10].content_store 	correction_factor[10] 	0.027225701061802
scalar abilene_cost_network.node[10].content_store 	kappa[10] 	1
scalar abilene_cost_network.client[3] 	hdistance[3] 	2.3798042894539
scalar abilene_cost_network.client[3] 	downloads[3] 	178018
scalar abilene_cost_network.client[3] 	avg_time[3] 	0.010785398402
scalar abilene_cost_network.client[7] 	hdistance[7] 	2.0925126633941
scalar abilene_cost_network.client[7] 	downloads[7] 	178862
scalar abilene_cost_network.client[7] 	avg_time[7] 	0.009608622091
scalar abilene_cost_network.client[9] 	hdistance[9] 	2.7064670484217
scalar abilene_cost_network.client[9] 	downloads[9] 	178474
scalar abilene_cost_network.client[9] 	avg_time[9] 	0.016760190931
