version 2
run General-3-20150902-20:49:48-2316
attr C 1e3
attr D fix0.1
attr F spr
attr R lru_repr
attr a 1
attr brates 0.3_0.7_1.5_2.5_3.5
attr configname General
attr ctlg 1e5
attr datetime 20150902-20:49:48
attr experiment General
attr inifile omnetpp.ini
attr iterationvars "$net=abilene_nodelay, $rep=0, $lambda=100, $a=1, $ctlg=1e5, $brates=0.3_0.7_1.5_2.5_3.5, $F=spr, $ttl=1000, $D=fix0.1, $R=lru_repr, $proactiveprob=0.1, $C=1e3, $window=60, $variance=0.05, $mytime=180000"
attr iterationvars2 "$net=abilene_nodelay, $rep=0, $lambda=100, $a=1, $ctlg=1e5, $brates=0.3_0.7_1.5_2.5_3.5, $F=spr, $ttl=1000, $D=fix0.1, $R=lru_repr, $proactiveprob=0.1, $C=1e3, $window=60, $variance=0.05, $mytime=180000, $repetition=0"
attr lambda 100
attr measurement "$net=abilene_nodelay, $rep=0, $lambda=100, $a=1, $ctlg=1e5, $brates=0.3_0.7_1.5_2.5_3.5, $F=spr, $ttl=1000, $D=fix0.1, $R=lru_repr, $proactiveprob=0.1, $C=1e3, $window=60, $variance=0.05, $mytime=180000"
attr mytime 180000
attr net abilene_nodelay
attr network networks.${net=abilene_nodelay}_network
attr proactiveprob 0.1
attr processid 2316
attr rep 0
attr repetition 0
attr replication #0
attr resultdir results
attr runnumber 3
attr seedset 0
attr ttl 1000
attr variance 0.05
attr window 60

scalar . 	C 	1e3
scalar . 	a 	1
scalar . 	ctlg 	1e5
scalar . 	lambda 	100
scalar . 	mytime 	180000
scalar . 	proactiveprob 	0.1
scalar . 	rep 	0
scalar . 	ttl 	1000
scalar . 	variance 	0.05
scalar . 	window 	60
scalar abilene_nodelay_network.content_distribution 	repo-0 	5
scalar abilene_nodelay_network.content_distribution 	repo-1 	8
scalar abilene_nodelay_network.content_distribution 	repo-2 	9
scalar abilene_nodelay_network.content_distribution 	repo-3 	0
scalar abilene_nodelay_network.content_distribution 	repo-4 	1
scalar abilene_nodelay_network.content_distribution 	repo-5 	7
scalar abilene_nodelay_network.content_distribution 	repo-6 	6
scalar abilene_nodelay_network.content_distribution 	repo-7 	2
scalar abilene_nodelay_network.content_distribution 	repo-8 	4
scalar abilene_nodelay_network.content_distribution 	repo-9 	10
scalar abilene_nodelay_network.content_distribution 	repo-10 	3
scalar abilene_nodelay_network.content_distribution 	client-0 	10
scalar abilene_nodelay_network.content_distribution 	client-1 	9
scalar abilene_nodelay_network.content_distribution 	client-2 	8
scalar abilene_nodelay_network.content_distribution 	client-3 	7
scalar abilene_nodelay_network.content_distribution 	client-4 	3
scalar abilene_nodelay_network.content_distribution 	client-5 	6
scalar abilene_nodelay_network.content_distribution 	client-6 	5
scalar abilene_nodelay_network.content_distribution 	client-7 	1
scalar abilene_nodelay_network.content_distribution 	client-8 	4
scalar abilene_nodelay_network.content_distribution 	client-9 	0
scalar abilene_nodelay_network.content_distribution 	client-10 	2
scalar abilene_nodelay_network.content_distribution 	repo-0_card 	9071
scalar abilene_nodelay_network.content_distribution 	repo-0_price 	0
scalar abilene_nodelay_network.content_distribution 	repo-1_card 	8986
scalar abilene_nodelay_network.content_distribution 	repo-1_price 	0
scalar abilene_nodelay_network.content_distribution 	repo-2_card 	9050
scalar abilene_nodelay_network.content_distribution 	repo-2_price 	0
scalar abilene_nodelay_network.content_distribution 	repo-3_card 	8986
scalar abilene_nodelay_network.content_distribution 	repo-3_price 	0
scalar abilene_nodelay_network.content_distribution 	repo-4_card 	9064
scalar abilene_nodelay_network.content_distribution 	repo-4_price 	0
scalar abilene_nodelay_network.content_distribution 	repo-5_card 	9170
scalar abilene_nodelay_network.content_distribution 	repo-5_price 	0
scalar abilene_nodelay_network.content_distribution 	repo-6_card 	9151
scalar abilene_nodelay_network.content_distribution 	repo-6_price 	0
scalar abilene_nodelay_network.content_distribution 	repo-7_card 	9112
scalar abilene_nodelay_network.content_distribution 	repo-7_price 	0
scalar abilene_nodelay_network.content_distribution 	repo-8_card 	9132
scalar abilene_nodelay_network.content_distribution 	repo-8_price 	0
scalar abilene_nodelay_network.content_distribution 	repo-9_card 	9101
scalar abilene_nodelay_network.content_distribution 	repo-9_price 	0
scalar abilene_nodelay_network.content_distribution 	repo-10_card 	9177
scalar abilene_nodelay_network.content_distribution 	repo-10_price 	0
scalar abilene_nodelay_network.statistics 	stabilization_time 	36060
scalar abilene_nodelay_network.statistics 	p_hit 	0.4249274385502
scalar abilene_nodelay_network.statistics 	interests 	30038145.181818
scalar abilene_nodelay_network.statistics 	data 	11448444.636364
scalar abilene_nodelay_network.statistics 	hdistance 	0.87691637575641
scalar abilene_nodelay_network.statistics 	avg_time 	0
scalar abilene_nodelay_network.statistics 	downloads 	197980075
scalar abilene_nodelay_network.statistics 	total_cost 	0
scalar abilene_nodelay_network.statistics 	total_replicas 	100000
scalar abilene_nodelay_network.statistics 	"representations_downloaded 0.482413:0.0618286:0.041204:0.0361253:0.378429:" 	0
scalar abilene_nodelay_network.statistics 	"slots_per_representation 100:233:500:833:1167:" 	0
scalar abilene_nodelay_network.statistics 	inner_hit 	0.67631918009931
scalar abilene_nodelay_network.statistics 	execution_time 	6807
scalar abilene_nodelay_network.node[0].core_layer 	interests[0] 	22028941
scalar abilene_nodelay_network.node[0].core_layer 	repo_load[0] 	4921391
scalar abilene_nodelay_network.node[0].core_layer 	data[0] 	5579964
scalar abilene_nodelay_network.node[0].core_layer 	slots_sent[face$o[1]->client[0]] 	10764636538
scalar abilene_nodelay_network.node[0].core_layer 	slots_sent[face$o[2]->node[1]] 	384455791
scalar abilene_nodelay_network.node[0].core_layer 	slots_sent[face$o[3]->node[10]] 	129982431
scalar abilene_nodelay_network.node[0].content_store 	p_hit[0] 	0.52329279015274
scalar abilene_nodelay_network.node[0].content_store 	hits[0] 	11527586
scalar abilene_nodelay_network.node[0].content_store 	misses[0] 	10501355
scalar abilene_nodelay_network.node[0].content_store 	decision_yes[0] 	558975
scalar abilene_nodelay_network.node[0].content_store 	decision_no[0] 	9942380
scalar abilene_nodelay_network.node[0].content_store 	decision_ratio[0] 	0.053228845229973
scalar abilene_nodelay_network.node[0].content_store 	"representation_breakdown[0] 6294:467:156:110:222:" 	0
scalar abilene_nodelay_network.node[0].proactive_component 	hdistance[0].proactive_component 	2.8118742763028
scalar abilene_nodelay_network.node[0].proactive_component 	downloads[0].proactive_component 	478446
scalar abilene_nodelay_network.node[0].proactive_component 	avg_time[0].proactive_component 	0
scalar abilene_nodelay_network.node[1].core_layer 	interests[1] 	33857435
scalar abilene_nodelay_network.node[1].core_layer 	repo_load[1] 	6244140
scalar abilene_nodelay_network.node[1].core_layer 	data[1] 	14526728
scalar abilene_nodelay_network.node[1].core_layer 	slots_sent[face$o[1]->client[1]] 	9215274023
scalar abilene_nodelay_network.node[1].core_layer 	slots_sent[face$o[2]->node[0]] 	746685567
scalar abilene_nodelay_network.node[1].core_layer 	slots_sent[face$o[3]->node[10]] 	561142184
scalar abilene_nodelay_network.node[1].core_layer 	slots_sent[face$o[4]->node[2]] 	1103270513
scalar abilene_nodelay_network.node[1].content_store 	p_hit[1] 	0.38651974078958
scalar abilene_nodelay_network.node[1].content_store 	hits[1] 	13086567
scalar abilene_nodelay_network.node[1].content_store 	misses[1] 	20770868
scalar abilene_nodelay_network.node[1].content_store 	decision_yes[1] 	1452854
scalar abilene_nodelay_network.node[1].content_store 	decision_no[1] 	19318014
scalar abilene_nodelay_network.node[1].content_store 	decision_ratio[1] 	0.069946715755933
scalar abilene_nodelay_network.node[1].content_store 	"representation_breakdown[1] 6698:535:180:108:165:" 	0
scalar abilene_nodelay_network.node[1].proactive_component 	hdistance[1].proactive_component 	2.5300230850846
scalar abilene_nodelay_network.node[1].proactive_component 	downloads[1].proactive_component 	841669
scalar abilene_nodelay_network.node[1].proactive_component 	avg_time[1].proactive_component 	0
scalar abilene_nodelay_network.node[2].core_layer 	interests[2] 	42950280
scalar abilene_nodelay_network.node[2].core_layer 	repo_load[2] 	7099265
scalar abilene_nodelay_network.node[2].core_layer 	data[2] 	21350142
scalar abilene_nodelay_network.node[2].core_layer 	slots_sent[face$o[1]->client[2]] 	9104708088
scalar abilene_nodelay_network.node[2].core_layer 	slots_sent[face$o[2]->node[1]] 	1474326649
scalar abilene_nodelay_network.node[2].core_layer 	slots_sent[face$o[3]->node[3]] 	1646512606
scalar abilene_nodelay_network.node[2].core_layer 	slots_sent[face$o[4]->node[8]] 	740953232
scalar abilene_nodelay_network.node[2].content_store 	p_hit[2] 	0.33761998757633
scalar abilene_nodelay_network.node[2].content_store 	hits[2] 	14500873
scalar abilene_nodelay_network.node[2].content_store 	misses[2] 	28449407
scalar abilene_nodelay_network.node[2].content_store 	decision_yes[2] 	2135013
scalar abilene_nodelay_network.node[2].content_store 	decision_no[2] 	26314394
scalar abilene_nodelay_network.node[2].content_store 	decision_ratio[2] 	0.075045957899931
scalar abilene_nodelay_network.node[2].content_store 	"representation_breakdown[2] 6910:554:190:95:148:" 	0
scalar abilene_nodelay_network.node[2].proactive_component 	hdistance[2].proactive_component 	2.4761802523914
scalar abilene_nodelay_network.node[2].proactive_component 	downloads[2].proactive_component 	1006056
scalar abilene_nodelay_network.node[2].proactive_component 	avg_time[2].proactive_component 	0
scalar abilene_nodelay_network.node[3].core_layer 	interests[3] 	40825945
scalar abilene_nodelay_network.node[3].core_layer 	repo_load[3] 	6105761
scalar abilene_nodelay_network.node[3].core_layer 	data[3] 	19753389
scalar abilene_nodelay_network.node[3].core_layer 	slots_sent[face$o[1]->client[3]] 	9791395900
scalar abilene_nodelay_network.node[3].core_layer 	slots_sent[face$o[2]->node[2]] 	1582322743
scalar abilene_nodelay_network.node[3].core_layer 	slots_sent[face$o[3]->node[4]] 	1116574208
scalar abilene_nodelay_network.node[3].core_layer 	slots_sent[face$o[4]->node[7]] 	813408538
scalar abilene_nodelay_network.node[3].content_store 	p_hit[3] 	0.36660008727293
scalar abilene_nodelay_network.node[3].content_store 	hits[3] 	14966795
scalar abilene_nodelay_network.node[3].content_store 	misses[3] 	25859150
scalar abilene_nodelay_network.node[3].content_store 	decision_yes[3] 	1974361
scalar abilene_nodelay_network.node[3].content_store 	decision_no[3] 	23884789
scalar abilene_nodelay_network.node[3].content_store 	decision_ratio[3] 	0.076350576101689
scalar abilene_nodelay_network.node[3].content_store 	"representation_breakdown[3] 6790:584:164:97:162:" 	0
scalar abilene_nodelay_network.node[3].proactive_component 	hdistance[3].proactive_component 	2.4715549134984
scalar abilene_nodelay_network.node[3].proactive_component 	downloads[3].proactive_component 	993335
scalar abilene_nodelay_network.node[3].proactive_component 	avg_time[3].proactive_component 	0
scalar abilene_nodelay_network.node[4].core_layer 	interests[4] 	27469350
scalar abilene_nodelay_network.node[4].core_layer 	repo_load[4] 	5278278
scalar abilene_nodelay_network.node[4].core_layer 	data[4] 	9574727
scalar abilene_nodelay_network.node[4].core_layer 	slots_sent[face$o[1]->client[4]] 	10410541818
scalar abilene_nodelay_network.node[4].core_layer 	slots_sent[face$o[2]->node[3]] 	775063117
scalar abilene_nodelay_network.node[4].core_layer 	slots_sent[face$o[3]->node[5]] 	630588265
scalar abilene_nodelay_network.node[4].content_store 	p_hit[4] 	0.45928807925925
scalar abilene_nodelay_network.node[4].content_store 	hits[4] 	12616345
scalar abilene_nodelay_network.node[4].content_store 	misses[4] 	14853005
scalar abilene_nodelay_network.node[4].content_store 	decision_yes[4] 	958318
scalar abilene_nodelay_network.node[4].content_store 	decision_no[4] 	13894687
scalar abilene_nodelay_network.node[4].content_store 	decision_ratio[4] 	0.064520142557011
scalar abilene_nodelay_network.node[4].content_store 	"representation_breakdown[4] 6717:546:173:98:171:" 	0
scalar abilene_nodelay_network.node[4].proactive_component 	hdistance[4].proactive_component 	2.6343664776416
scalar abilene_nodelay_network.node[4].proactive_component 	downloads[4].proactive_component 	646828
scalar abilene_nodelay_network.node[4].proactive_component 	avg_time[4].proactive_component 	0
scalar abilene_nodelay_network.node[5].core_layer 	interests[5] 	23246019
scalar abilene_nodelay_network.node[5].core_layer 	repo_load[5] 	6381889
scalar abilene_nodelay_network.node[5].core_layer 	data[5] 	6467971
scalar abilene_nodelay_network.node[5].core_layer 	slots_sent[face$o[1]->client[5]] 	9270674425
scalar abilene_nodelay_network.node[5].core_layer 	slots_sent[face$o[2]->node[4]] 	411366981
scalar abilene_nodelay_network.node[5].core_layer 	slots_sent[face$o[3]->node[6]] 	318360022
scalar abilene_nodelay_network.node[5].content_store 	p_hit[5] 	0.44722319980897
scalar abilene_nodelay_network.node[5].content_store 	hits[5] 	10396159
scalar abilene_nodelay_network.node[5].content_store 	misses[5] 	12849860
scalar abilene_nodelay_network.node[5].content_store 	decision_yes[5] 	647407
scalar abilene_nodelay_network.node[5].content_store 	decision_no[5] 	12202453
scalar abilene_nodelay_network.node[5].content_store 	decision_ratio[5] 	0.050382416617769
scalar abilene_nodelay_network.node[5].content_store 	"representation_breakdown[5] 6493:466:165:106:204:" 	0
scalar abilene_nodelay_network.node[5].proactive_component 	hdistance[5].proactive_component 	2.7048409230969
scalar abilene_nodelay_network.node[5].proactive_component 	downloads[5].proactive_component 	507899
scalar abilene_nodelay_network.node[5].proactive_component 	avg_time[5].proactive_component 	0
scalar abilene_nodelay_network.node[6].core_layer 	interests[6] 	25379146
scalar abilene_nodelay_network.node[6].core_layer 	repo_load[6] 	5109698
scalar abilene_nodelay_network.node[6].core_layer 	data[6] 	8039232
scalar abilene_nodelay_network.node[6].core_layer 	slots_sent[face$o[1]->client[6]] 	10602448350
scalar abilene_nodelay_network.node[6].core_layer 	slots_sent[face$o[2]->node[5]] 	417336726
scalar abilene_nodelay_network.node[6].core_layer 	slots_sent[face$o[3]->node[7]] 	644786579
scalar abilene_nodelay_network.node[6].content_store 	p_hit[6] 	0.4819002183919
scalar abilene_nodelay_network.node[6].content_store 	hits[6] 	12230216
scalar abilene_nodelay_network.node[6].content_store 	misses[6] 	13148930
scalar abilene_nodelay_network.node[6].content_store 	decision_yes[6] 	804312
scalar abilene_nodelay_network.node[6].content_store 	decision_no[6] 	12344618
scalar abilene_nodelay_network.node[6].content_store 	decision_ratio[6] 	0.061169387927383
scalar abilene_nodelay_network.node[6].content_store 	"representation_breakdown[6] 6540:536:152:94:200:" 	0
scalar abilene_nodelay_network.node[6].proactive_component 	hdistance[6].proactive_component 	2.5870014540922
scalar abilene_nodelay_network.node[6].proactive_component 	downloads[6].proactive_component 	577680
scalar abilene_nodelay_network.node[6].proactive_component 	avg_time[6].proactive_component 	0
scalar abilene_nodelay_network.node[7].core_layer 	interests[7] 	32584837
scalar abilene_nodelay_network.node[7].core_layer 	repo_load[7] 	5903572
scalar abilene_nodelay_network.node[7].core_layer 	data[7] 	12961777
scalar abilene_nodelay_network.node[7].core_layer 	slots_sent[face$o[1]->client[7]] 	10372612278
scalar abilene_nodelay_network.node[7].core_layer 	slots_sent[face$o[2]->node[3]] 	621596319
scalar abilene_nodelay_network.node[7].core_layer 	slots_sent[face$o[3]->node[6]] 	968793558
scalar abilene_nodelay_network.node[7].core_layer 	slots_sent[face$o[4]->node[8]] 	609748145
scalar abilene_nodelay_network.node[7].content_store 	p_hit[7] 	0.4210390249919
scalar abilene_nodelay_network.node[7].content_store 	hits[7] 	13719488
scalar abilene_nodelay_network.node[7].content_store 	misses[7] 	18865349
scalar abilene_nodelay_network.node[7].content_store 	decision_yes[7] 	1294280
scalar abilene_nodelay_network.node[7].content_store 	decision_no[7] 	17571069
scalar abilene_nodelay_network.node[7].content_store 	decision_ratio[7] 	0.068606204952795
scalar abilene_nodelay_network.node[7].content_store 	"representation_breakdown[7] 6650:554:165:100:177:" 	0
scalar abilene_nodelay_network.node[7].proactive_component 	hdistance[7].proactive_component 	2.4110653793582
scalar abilene_nodelay_network.node[7].proactive_component 	downloads[7].proactive_component 	782097
scalar abilene_nodelay_network.node[7].proactive_component 	avg_time[7].proactive_component 	0
scalar abilene_nodelay_network.node[8].core_layer 	interests[8] 	31556374
scalar abilene_nodelay_network.node[8].core_layer 	repo_load[8] 	5551636
scalar abilene_nodelay_network.node[8].core_layer 	data[8] 	12320358
scalar abilene_nodelay_network.node[8].core_layer 	slots_sent[face$o[1]->client[8]] 	10272605127
scalar abilene_nodelay_network.node[8].core_layer 	slots_sent[face$o[2]->node[2]] 	562608798
scalar abilene_nodelay_network.node[8].core_layer 	slots_sent[face$o[3]->node[7]] 	586754188
scalar abilene_nodelay_network.node[8].core_layer 	slots_sent[face$o[4]->node[9]] 	862912717
scalar abilene_nodelay_network.node[8].content_store 	p_hit[8] 	0.4336486821965
scalar abilene_nodelay_network.node[8].content_store 	hits[8] 	13684380
scalar abilene_nodelay_network.node[8].content_store 	misses[8] 	17871994
scalar abilene_nodelay_network.node[8].content_store 	decision_yes[8] 	1232887
scalar abilene_nodelay_network.node[8].content_store 	decision_no[8] 	16639107
scalar abilene_nodelay_network.node[8].content_store 	decision_ratio[8] 	0.068984300240924
scalar abilene_nodelay_network.node[8].content_store 	"representation_breakdown[8] 6506:532:170:100:192:" 	0
scalar abilene_nodelay_network.node[8].proactive_component 	hdistance[8].proactive_component 	2.3420625080165
scalar abilene_nodelay_network.node[8].proactive_component 	downloads[8].proactive_component 	795226
scalar abilene_nodelay_network.node[8].proactive_component 	avg_time[8].proactive_component 	0
scalar abilene_nodelay_network.node[9].core_layer 	interests[9] 	25495102
scalar abilene_nodelay_network.node[9].core_layer 	repo_load[9] 	5402596
scalar abilene_nodelay_network.node[9].core_layer 	data[9] 	8024515
scalar abilene_nodelay_network.node[9].core_layer 	slots_sent[face$o[1]->client[9]] 	10229707738
scalar abilene_nodelay_network.node[9].core_layer 	slots_sent[face$o[2]->node[10]] 	481682888
scalar abilene_nodelay_network.node[9].core_layer 	slots_sent[face$o[3]->node[8]] 	591786960
scalar abilene_nodelay_network.node[9].content_store 	p_hit[9] 	0.47334546847469
scalar abilene_nodelay_network.node[9].content_store 	hits[9] 	12067991
scalar abilene_nodelay_network.node[9].content_store 	misses[9] 	13427111
scalar abilene_nodelay_network.node[9].content_store 	decision_yes[9] 	801744
scalar abilene_nodelay_network.node[9].content_store 	decision_no[9] 	12625367
scalar abilene_nodelay_network.node[9].content_store 	decision_ratio[9] 	0.059710834296372
scalar abilene_nodelay_network.node[9].content_store 	"representation_breakdown[9] 6678:502:165:109:179:" 	0
scalar abilene_nodelay_network.node[9].proactive_component 	hdistance[9].proactive_component 	2.5190635651398
scalar abilene_nodelay_network.node[9].proactive_component 	downloads[9].proactive_component 	602327
scalar abilene_nodelay_network.node[9].proactive_component 	avg_time[9].proactive_component 	0
scalar abilene_nodelay_network.node[10].core_layer 	interests[10] 	25026168
scalar abilene_nodelay_network.node[10].core_layer 	repo_load[10] 	6084127
scalar abilene_nodelay_network.node[10].core_layer 	data[10] 	7334088
scalar abilene_nodelay_network.node[10].core_layer 	slots_sent[face$o[1]->client[10]] 	9838153138
scalar abilene_nodelay_network.node[10].core_layer 	slots_sent[face$o[2]->node[0]] 	169088436
scalar abilene_nodelay_network.node[10].core_layer 	slots_sent[face$o[3]->node[1]] 	406310990
scalar abilene_nodelay_network.node[10].core_layer 	slots_sent[face$o[4]->node[9]] 	398941476
scalar abilene_nodelay_network.node[10].content_store 	p_hit[10] 	0.463832617123
scalar abilene_nodelay_network.node[10].content_store 	hits[10] 	11607953
scalar abilene_nodelay_network.node[10].content_store 	misses[10] 	13418215
scalar abilene_nodelay_network.node[10].content_store 	decision_yes[10] 	732972
scalar abilene_nodelay_network.node[10].content_store 	decision_no[10] 	12685243
scalar abilene_nodelay_network.node[10].content_store 	decision_ratio[10] 	0.054625149470328
scalar abilene_nodelay_network.node[10].content_store 	"representation_breakdown[10] 6487:483:182:92:204:" 	0
scalar abilene_nodelay_network.node[10].proactive_component 	hdistance[10].proactive_component 	2.4573307635085
scalar abilene_nodelay_network.node[10].proactive_component 	downloads[10].proactive_component 	591480
scalar abilene_nodelay_network.node[10].proactive_component 	avg_time[10].proactive_component 	0
scalar abilene_nodelay_network.client[0] 	hdistance[0].real 	0.92504648100635
scalar abilene_nodelay_network.client[0] 	downloads[0].real 	17997674
scalar abilene_nodelay_network.client[0] 	avg_time[0].real 	0
scalar abilene_nodelay_network.client[1] 	hdistance[1].real 	0.9033333970472
scalar abilene_nodelay_network.client[1] 	downloads[1].real 	17997136
scalar abilene_nodelay_network.client[1] 	avg_time[1].real 	0
scalar abilene_nodelay_network.client[2] 	hdistance[2].real 	0.8503726626589
scalar abilene_nodelay_network.client[2] 	downloads[2].real 	17996571
scalar abilene_nodelay_network.client[2] 	avg_time[2].real 	0
scalar abilene_nodelay_network.client[3] 	hdistance[3].real 	0.82130542744941
scalar abilene_nodelay_network.client[3] 	downloads[3].real 	17999836
scalar abilene_nodelay_network.client[3] 	avg_time[3].real 	0
scalar abilene_nodelay_network.client[4] 	hdistance[4].real 	0.90073545135473
scalar abilene_nodelay_network.client[4] 	downloads[4].real 	18003910
scalar abilene_nodelay_network.client[4] 	avg_time[4].real 	0
scalar abilene_nodelay_network.client[5] 	hdistance[5].real 	0.99627921650135
scalar abilene_nodelay_network.client[5] 	downloads[5].real 	17998091
scalar abilene_nodelay_network.client[5] 	avg_time[5].real 	0
scalar abilene_nodelay_network.client[6] 	hdistance[6].real 	0.89636873153066
scalar abilene_nodelay_network.client[6] 	downloads[6].real 	18002800
scalar abilene_nodelay_network.client[6] 	avg_time[6].real 	0
scalar abilene_nodelay_network.client[7] 	hdistance[7].real 	0.80183705055723
scalar abilene_nodelay_network.client[7] 	downloads[7].real 	17996674
scalar abilene_nodelay_network.client[7] 	avg_time[7].real 	0
scalar abilene_nodelay_network.client[8] 	hdistance[8].real 	0.78563631119721
scalar abilene_nodelay_network.client[8] 	downloads[8].real 	17994890
scalar abilene_nodelay_network.client[8] 	avg_time[8].real 	0
scalar abilene_nodelay_network.client[9] 	hdistance[9].real 	0.86121322855342
scalar abilene_nodelay_network.client[9] 	downloads[9].real 	17998884
scalar abilene_nodelay_network.client[9] 	avg_time[9].real 	0
scalar abilene_nodelay_network.client[10] 	hdistance[10].real 	0.9039521754641
scalar abilene_nodelay_network.client[10] 	downloads[10].real 	17993609
scalar abilene_nodelay_network.client[10] 	avg_time[10].real 	0
