version 2
run General-7-20141007-10:51:25-8396
attr D fix0.05
attr F spr
attr R lru
attr a 1
attr configname General
attr csize 1e3
attr ctlg 1e5
attr datetime 20141007-10:51:25
attr experiment General
attr inifile omnetpp.ini
attr iterationvars "$net=abilene_cost, $rep=1, $priceratiovalue=10, $weights=0.333_0.333_0.334, $lambda=100, $a=1, $ctlg=1e5, $F=spr, $ttl=10, $D=fix0.05, $xi=1, $R=lru, $csize=1e3, $pricebits=0, $window=60, $variance=0.05, $mytime=1800"
attr iterationvars2 "$net=abilene_cost, $rep=1, $priceratiovalue=10, $weights=0.333_0.333_0.334, $lambda=100, $a=1, $ctlg=1e5, $F=spr, $ttl=10, $D=fix0.05, $xi=1, $R=lru, $csize=1e3, $pricebits=0, $window=60, $variance=0.05, $mytime=1800, $repetition=0"
attr lambda 100
attr measurement "$net=abilene_cost, $rep=1, $priceratiovalue=10, $weights=0.333_0.333_0.334, $lambda=100, $a=1, $ctlg=1e5, $F=spr, $ttl=10, $D=fix0.05, $xi=1, $R=lru, $csize=1e3, $pricebits=0, $window=60, $variance=0.05, $mytime=1800"
attr mytime 1800
attr net abilene_cost
attr network networks.${net=abilene_cost,geant_cost}_network
attr pricebits 0
attr priceratiovalue 10
attr processid 8396
attr rep 1
attr repetition 0
attr replication #0
attr resultdir results
attr runnumber 7
attr seedset 1
attr ttl 10
attr variance 0.05
attr weights 0.333_0.333_0.334
attr window 60
attr xi 1

scalar . 	a 	1
scalar . 	csize 	1e3
scalar . 	ctlg 	1e5
scalar . 	lambda 	100
scalar . 	mytime 	1800
scalar . 	pricebits 	0
scalar . 	priceratiovalue 	10
scalar . 	rep 	1
scalar . 	ttl 	10
scalar . 	variance 	0.05
scalar . 	window 	60
scalar . 	xi 	1
scalar abilene_cost_network.content_distribution 	repo-0 	10
scalar abilene_cost_network.content_distribution 	repo-1 	7
scalar abilene_cost_network.content_distribution 	repo-2 	5
scalar abilene_cost_network.content_distribution 	client-0 	8
scalar abilene_cost_network.content_distribution 	client-1 	7
scalar abilene_cost_network.content_distribution 	client-2 	2
scalar abilene_cost_network.content_distribution 	repo-0_card 	33397
scalar abilene_cost_network.content_distribution 	repo-0_price 	0
scalar abilene_cost_network.content_distribution 	repo-1_card 	33041
scalar abilene_cost_network.content_distribution 	repo-1_price 	10
scalar abilene_cost_network.content_distribution 	repo-2_card 	33562
scalar abilene_cost_network.content_distribution 	repo-2_price 	1
scalar abilene_cost_network.statistics 	repo_popularity[0] 	0.36106327575467
scalar abilene_cost_network.statistics 	repo_popularity[1] 	0.3490006524958
scalar abilene_cost_network.statistics 	repo_popularity[2] 	0.28993607174955
scalar abilene_cost_network.statistics 	stabilization_time 	36060
scalar abilene_cost_network.statistics 	p_hit 	0.20816135273152
scalar abilene_cost_network.statistics 	interests 	108451.27272727
scalar abilene_cost_network.statistics 	data 	59374.363636364
scalar abilene_cost_network.statistics 	hdistance 	1.7496714628657
scalar abilene_cost_network.statistics 	avg_time 	0.007785997884
scalar abilene_cost_network.statistics 	downloads 	539734
scalar abilene_cost_network.statistics 	total_cost 	1165031
scalar abilene_cost_network.statistics 	total_replicas 	100000
scalar abilene_cost_network.statistics 	inner_hit 	0.46017667962367
scalar abilene_cost_network.node[0].core_layer 	interests[0] 	0
scalar abilene_cost_network.node[0].core_layer 	data[0] 	0
scalar abilene_cost_network.node[0].core_layer 	repo_int[0] 	291361
scalar abilene_cost_network.node[0].content_store 	p_hit[0] 	-nan
scalar abilene_cost_network.node[0].content_store 	hits[0] 	0
scalar abilene_cost_network.node[0].content_store 	misses[0] 	0
scalar abilene_cost_network.node[0].content_store 	decision_yes[0] 	0
scalar abilene_cost_network.node[0].content_store 	decision_no[0] 	0
scalar abilene_cost_network.node[0].content_store 	decision_ratio[0] 	0
scalar abilene_cost_network.node[1].core_layer 	interests[1] 	38501
scalar abilene_cost_network.node[1].core_layer 	data[1] 	32874
scalar abilene_cost_network.node[1].content_store 	p_hit[1] 	0.14615204799875
scalar abilene_cost_network.node[1].content_store 	hits[1] 	5627
scalar abilene_cost_network.node[1].content_store 	misses[1] 	32874
scalar abilene_cost_network.node[1].content_store 	decision_yes[1] 	1617
scalar abilene_cost_network.node[1].content_store 	decision_no[1] 	31257
scalar abilene_cost_network.node[1].content_store 	decision_ratio[1] 	0.04918780799416
scalar abilene_cost_network.node[2].core_layer 	interests[2] 	180760
scalar abilene_cost_network.node[2].core_layer 	data[2] 	115361
scalar abilene_cost_network.node[2].content_store 	p_hit[2] 	0.36165080770082
scalar abilene_cost_network.node[2].content_store 	hits[2] 	65372
scalar abilene_cost_network.node[2].content_store 	misses[2] 	115388
scalar abilene_cost_network.node[2].content_store 	decision_yes[2] 	5582
scalar abilene_cost_network.node[2].content_store 	decision_no[2] 	109779
scalar abilene_cost_network.node[2].content_store 	decision_ratio[2] 	0.048387236587755
scalar abilene_cost_network.node[3].core_layer 	interests[3] 	76859
scalar abilene_cost_network.node[3].core_layer 	data[3] 	70391
scalar abilene_cost_network.node[3].content_store 	p_hit[3] 	0.084154100365605
scalar abilene_cost_network.node[3].content_store 	hits[3] 	6468
scalar abilene_cost_network.node[3].content_store 	misses[3] 	70391
scalar abilene_cost_network.node[3].content_store 	decision_yes[3] 	3419
scalar abilene_cost_network.node[3].content_store 	decision_no[3] 	66972
scalar abilene_cost_network.node[3].content_store 	decision_ratio[3] 	0.048571550340242
scalar abilene_cost_network.node[4].core_layer 	interests[4] 	35995
scalar abilene_cost_network.node[4].core_layer 	data[4] 	32539
scalar abilene_cost_network.node[4].content_store 	p_hit[4] 	0.096013335185442
scalar abilene_cost_network.node[4].content_store 	hits[4] 	3456
scalar abilene_cost_network.node[4].content_store 	misses[4] 	32539
scalar abilene_cost_network.node[4].content_store 	decision_yes[4] 	1740
scalar abilene_cost_network.node[4].content_store 	decision_no[4] 	30799
scalar abilene_cost_network.node[4].content_store 	decision_ratio[4] 	0.053474292387596
scalar abilene_cost_network.node[5].core_layer 	interests[5] 	99158
scalar abilene_cost_network.node[5].core_layer 	repo_load[5] 	92871
scalar abilene_cost_network.node[5].core_layer 	data[5] 	0
scalar abilene_cost_network.node[5].content_store 	p_hit[5] 	0.063403860505456
scalar abilene_cost_network.node[5].content_store 	hits[5] 	6287
scalar abilene_cost_network.node[5].content_store 	misses[5] 	92871
scalar abilene_cost_network.node[5].content_store 	decision_yes[5] 	4672
scalar abilene_cost_network.node[5].content_store 	decision_no[5] 	88199
scalar abilene_cost_network.node[5].content_store 	decision_ratio[5] 	0.050306338900195
scalar abilene_cost_network.node[6].core_layer 	interests[6] 	76476
scalar abilene_cost_network.node[6].core_layer 	data[6] 	66619
scalar abilene_cost_network.node[6].content_store 	p_hit[6] 	0.12889010931534
scalar abilene_cost_network.node[6].content_store 	hits[6] 	9857
scalar abilene_cost_network.node[6].content_store 	misses[6] 	66619
scalar abilene_cost_network.node[6].content_store 	decision_yes[6] 	3340
scalar abilene_cost_network.node[6].content_store 	decision_no[6] 	63279
scalar abilene_cost_network.node[6].content_store 	decision_ratio[6] 	0.050135847130698
scalar abilene_cost_network.node[7].core_layer 	interests[7] 	292964
scalar abilene_cost_network.node[7].core_layer 	repo_load[7] 	107216
scalar abilene_cost_network.node[7].core_layer 	data[7] 	117929
scalar abilene_cost_network.node[7].content_store 	p_hit[7] 	0.23131852377767
scalar abilene_cost_network.node[7].content_store 	hits[7] 	67768
scalar abilene_cost_network.node[7].content_store 	misses[7] 	225196
scalar abilene_cost_network.node[7].content_store 	decision_yes[7] 	11516
scalar abilene_cost_network.node[7].content_store 	decision_no[7] 	213629
scalar abilene_cost_network.node[7].content_store 	decision_ratio[7] 	0.051149259366186
scalar abilene_cost_network.node[8].core_layer 	interests[8] 	221048
scalar abilene_cost_network.node[8].core_layer 	data[8] 	152406
scalar abilene_cost_network.node[8].content_store 	p_hit[8] 	0.31017697513662
scalar abilene_cost_network.node[8].content_store 	hits[8] 	68564
scalar abilene_cost_network.node[8].content_store 	misses[8] 	152484
scalar abilene_cost_network.node[8].content_store 	decision_yes[8] 	7709
scalar abilene_cost_network.node[8].content_store 	decision_no[8] 	144697
scalar abilene_cost_network.node[8].content_store 	decision_ratio[8] 	0.050581998084065
scalar abilene_cost_network.node[9].core_layer 	interests[9] 	73330
scalar abilene_cost_network.node[9].core_layer 	data[9] 	64999
scalar abilene_cost_network.node[9].content_store 	p_hit[9] 	0.11360970953225
scalar abilene_cost_network.node[9].content_store 	hits[9] 	8331
scalar abilene_cost_network.node[9].content_store 	misses[9] 	64999
scalar abilene_cost_network.node[9].content_store 	decision_yes[9] 	3185
scalar abilene_cost_network.node[9].content_store 	decision_no[9] 	61814
scalar abilene_cost_network.node[9].content_store 	decision_ratio[9] 	0.049000753857752
scalar abilene_cost_network.node[10].core_layer 	interests[10] 	97873
scalar abilene_cost_network.node[10].core_layer 	repo_load[10] 	91274
scalar abilene_cost_network.node[10].core_layer 	data[10] 	0
scalar abilene_cost_network.node[10].content_store 	p_hit[10] 	0.067424110837514
scalar abilene_cost_network.node[10].content_store 	hits[10] 	6599
scalar abilene_cost_network.node[10].content_store 	misses[10] 	91274
scalar abilene_cost_network.node[10].content_store 	decision_yes[10] 	4545
scalar abilene_cost_network.node[10].content_store 	decision_no[10] 	86729
scalar abilene_cost_network.node[10].content_store 	decision_ratio[10] 	0.049795122378772
scalar abilene_cost_network.client[2] 	hdistance[2] 	1.9108408536349
scalar abilene_cost_network.client[2] 	downloads[2] 	180733
scalar abilene_cost_network.client[2] 	avg_time[2] 	0.007768163908
scalar abilene_cost_network.client[7] 	hdistance[7] 	1.5791814103814
scalar abilene_cost_network.client[7] 	downloads[7] 	179455
scalar abilene_cost_network.client[7] 	avg_time[7] 	0.007024078889
scalar abilene_cost_network.client[8] 	hdistance[8] 	1.7589921245809
scalar abilene_cost_network.client[8] 	downloads[8] 	179546
scalar abilene_cost_network.client[8] 	avg_time[8] 	0.008565750855
