version 2
run General-21-20150311-18:41:40-22309
attr D fix0.01
attr F nrr
attr R lru
attr a 0.8
attr configname General
attr csize 1e3
attr ctlg 1e5
attr datetime 20150311-18:41:40
attr experiment General
attr inifile omnetpp.ini
attr iterationvars "$rep=6, $net=geant_cost, $lambda=100, $a=0.8, $ctlg=1e5, $F=nrr, $ttl=10, $D=fix0.01, $R=lru, $csize=1e3, $window=60, $variance=0.05, $mytime=1800, $kappa=1, $priceratiovalue=10, $pricebits=0"
attr iterationvars2 "$rep=6, $net=geant_cost, $lambda=100, $a=0.8, $ctlg=1e5, $F=nrr, $ttl=10, $D=fix0.01, $R=lru, $csize=1e3, $window=60, $variance=0.05, $mytime=1800, $kappa=1, $priceratiovalue=10, $pricebits=0, $repetition=0"
attr kappa 1
attr lambda 100
attr measurement "$rep=6, $net=geant_cost, $lambda=100, $a=0.8, $ctlg=1e5, $F=nrr, $ttl=10, $D=fix0.01, $R=lru, $csize=1e3, $window=60, $variance=0.05, $mytime=1800, $kappa=1, $priceratiovalue=10, $pricebits=0"
attr mytime 1800
attr net geant_cost
attr network networks.${net=geant_cost}_network
attr pricebits 0
attr priceratiovalue 10
attr processid 22309
attr rep 6
attr repetition 0
attr replication #0
attr resultdir results
attr runnumber 21
attr seedset 6
attr ttl 10
attr variance 0.05
attr window 60

scalar . 	a 	0.8
scalar . 	csize 	1e3
scalar . 	ctlg 	1e5
scalar . 	kappa 	1
scalar . 	lambda 	100
scalar . 	mytime 	1800
scalar . 	pricebits 	0
scalar . 	priceratiovalue 	10
scalar . 	rep 	6
scalar . 	ttl 	10
scalar . 	variance 	0.05
scalar . 	window 	60
scalar geant_cost_network.content_distribution 	repo-0 	18
scalar geant_cost_network.content_distribution 	repo-1 	6
scalar geant_cost_network.content_distribution 	repo-2 	9
scalar geant_cost_network.content_distribution 	client-0 	14
scalar geant_cost_network.content_distribution 	client-1 	21
scalar geant_cost_network.content_distribution 	client-2 	2
scalar geant_cost_network.content_distribution 	client-3 	8
scalar geant_cost_network.content_distribution 	client-4 	19
scalar geant_cost_network.content_distribution 	client-5 	20
scalar geant_cost_network.content_distribution 	client-6 	10
scalar geant_cost_network.content_distribution 	client-7 	5
scalar geant_cost_network.content_distribution 	client-8 	1
scalar geant_cost_network.content_distribution 	client-9 	18
scalar geant_cost_network.content_distribution 	client-10 	12
scalar geant_cost_network.content_distribution 	client-11 	7
scalar geant_cost_network.content_distribution 	client-12 	15
scalar geant_cost_network.content_distribution 	client-13 	16
scalar geant_cost_network.content_distribution 	client-14 	9
scalar geant_cost_network.content_distribution 	client-15 	11
scalar geant_cost_network.content_distribution 	client-16 	4
scalar geant_cost_network.content_distribution 	client-17 	17
scalar geant_cost_network.content_distribution 	client-18 	3
scalar geant_cost_network.content_distribution 	client-19 	0
scalar geant_cost_network.content_distribution 	client-20 	13
scalar geant_cost_network.content_distribution 	client-21 	6
scalar geant_cost_network.content_distribution 	repo-0_card 	33424
scalar geant_cost_network.content_distribution 	repo-0_price 	0
scalar geant_cost_network.content_distribution 	repo-1_card 	33145
scalar geant_cost_network.content_distribution 	repo-1_price 	1
scalar geant_cost_network.content_distribution 	repo-2_card 	33431
scalar geant_cost_network.content_distribution 	repo-2_price 	10
scalar geant_cost_network.statistics 	repo_popularity[0] 	0.32207541000554
scalar geant_cost_network.statistics 	repo_popularity[1] 	0.32162296681085
scalar geant_cost_network.statistics 	repo_popularity[2] 	0.3563016231836
scalar geant_cost_network.statistics 	stabilization_time 	116
scalar geant_cost_network.statistics 	p_hit 	0.069328377738186
scalar geant_cost_network.statistics 	interests 	579620.31818182
scalar geant_cost_network.statistics 	data 	399497.68181818
scalar geant_cost_network.statistics 	hdistance 	2.9958040041612
scalar geant_cost_network.statistics 	avg_time 	0.014650186573
scalar geant_cost_network.statistics 	downloads 	3961476
scalar geant_cost_network.statistics 	total_cost 	11164536
scalar geant_cost_network.statistics 	total_replicas 	100000
scalar geant_cost_network.statistics 	inner_hit 	0.22363255513854
scalar geant_cost_network.statistics 	interests_sent 	3962704
scalar geant_cost_network.node[0].core_layer 	interests[0] 	207323
scalar geant_cost_network.node[0].core_layer 	data[0] 	169033
scalar geant_cost_network.node[0].core_layer 	repo_int[0] 	3075561
scalar geant_cost_network.node[0].content_store 	p_hit[0] 	0.18368921923761
scalar geant_cost_network.node[0].content_store 	hits[0] 	38083
scalar geant_cost_network.node[0].content_store 	misses[0] 	169240
scalar geant_cost_network.node[0].content_store 	decision_yes[0] 	1727
scalar geant_cost_network.node[0].content_store 	decision_no[0] 	167306
scalar geant_cost_network.node[0].content_store 	decision_ratio[0] 	0.010216939887478
scalar geant_cost_network.node[0].content_store 	cache_value[0] 	0.21287480748894
scalar geant_cost_network.node[0].content_store 	average_price_of_cache[0] 	0.78260869565217
scalar geant_cost_network.node[1].core_layer 	interests[1] 	394500
scalar geant_cost_network.node[1].core_layer 	data[1] 	337728
scalar geant_cost_network.node[1].content_store 	p_hit[1] 	0.14318377693283
scalar geant_cost_network.node[1].content_store 	hits[1] 	56486
scalar geant_cost_network.node[1].content_store 	misses[1] 	338014
scalar geant_cost_network.node[1].content_store 	decision_yes[1] 	3392
scalar geant_cost_network.node[1].content_store 	decision_no[1] 	334335
scalar geant_cost_network.node[1].content_store 	decision_ratio[1] 	0.010043615109245
scalar geant_cost_network.node[1].content_store 	cache_value[1] 	0.1638209901649
scalar geant_cost_network.node[1].content_store 	average_price_of_cache[1] 	1
scalar geant_cost_network.node[2].core_layer 	interests[2] 	204369
scalar geant_cost_network.node[2].core_layer 	data[2] 	163975
scalar geant_cost_network.node[2].content_store 	p_hit[2] 	0.1973048750055
scalar geant_cost_network.node[2].content_store 	hits[2] 	40323
scalar geant_cost_network.node[2].content_store 	misses[2] 	164046
scalar geant_cost_network.node[2].content_store 	decision_yes[2] 	1635
scalar geant_cost_network.node[2].content_store 	decision_no[2] 	162340
scalar geant_cost_network.node[2].content_store 	decision_ratio[2] 	0.009971032169538
scalar geant_cost_network.node[2].content_store 	cache_value[2] 	0.43236227353262
scalar geant_cost_network.node[2].content_store 	average_price_of_cache[2] 	1.3913043478261
scalar geant_cost_network.node[3].core_layer 	interests[3] 	964024
scalar geant_cost_network.node[3].core_layer 	data[3] 	918216
scalar geant_cost_network.node[3].content_store 	p_hit[3] 	0.047235338539289
scalar geant_cost_network.node[3].content_store 	hits[3] 	45536
scalar geant_cost_network.node[3].content_store 	misses[3] 	918488
scalar geant_cost_network.node[3].content_store 	decision_yes[3] 	9145
scalar geant_cost_network.node[3].content_store 	decision_no[3] 	909067
scalar geant_cost_network.node[3].content_store 	decision_ratio[3] 	0.0099595736060953
scalar geant_cost_network.node[3].content_store 	cache_value[3] 	0.33536451179155
scalar geant_cost_network.node[3].content_store 	average_price_of_cache[3] 	1.5
scalar geant_cost_network.node[4].core_layer 	interests[4] 	1004655
scalar geant_cost_network.node[4].core_layer 	data[4] 	962995
scalar geant_cost_network.node[4].content_store 	p_hit[4] 	0.041230074005504
scalar geant_cost_network.node[4].content_store 	hits[4] 	41422
scalar geant_cost_network.node[4].content_store 	misses[4] 	963233
scalar geant_cost_network.node[4].content_store 	decision_yes[4] 	9599
scalar geant_cost_network.node[4].content_store 	decision_no[4] 	953394
scalar geant_cost_network.node[4].content_store 	decision_ratio[4] 	0.0099678813864691
scalar geant_cost_network.node[4].content_store 	cache_value[4] 	0.78070284412678
scalar geant_cost_network.node[4].content_store 	average_price_of_cache[4] 	2.4565217391304
scalar geant_cost_network.node[5].core_layer 	interests[5] 	906632
scalar geant_cost_network.node[5].core_layer 	data[5] 	872779
scalar geant_cost_network.node[5].content_store 	p_hit[5] 	0.037067961422054
scalar geant_cost_network.node[5].content_store 	hits[5] 	33607
scalar geant_cost_network.node[5].content_store 	misses[5] 	873025
scalar geant_cost_network.node[5].content_store 	decision_yes[5] 	8686
scalar geant_cost_network.node[5].content_store 	decision_no[5] 	864091
scalar geant_cost_network.node[5].content_store 	decision_ratio[5] 	0.0099521412686173
scalar geant_cost_network.node[5].content_store 	cache_value[5] 	0.094401956746627
scalar geant_cost_network.node[5].content_store 	average_price_of_cache[5] 	0.97826086956522
scalar geant_cost_network.node[6].core_layer 	interests[6] 	1163006
scalar geant_cost_network.node[6].core_layer 	repo_load[6] 	1020886
scalar geant_cost_network.node[6].core_layer 	data[6] 	119462
scalar geant_cost_network.node[6].content_store 	p_hit[6] 	0.019428102692505
scalar geant_cost_network.node[6].content_store 	hits[6] 	22595
scalar geant_cost_network.node[6].content_store 	misses[6] 	1140411
scalar geant_cost_network.node[6].content_store 	decision_yes[6] 	11486
scalar geant_cost_network.node[6].content_store 	decision_no[6] 	1128862
scalar geant_cost_network.node[6].content_store 	decision_ratio[6] 	0.010072363874887
scalar geant_cost_network.node[6].content_store 	cache_value[6] 	0.92604813120669
scalar geant_cost_network.node[6].content_store 	average_price_of_cache[6] 	0.82608695652174
scalar geant_cost_network.node[7].core_layer 	interests[7] 	773240
scalar geant_cost_network.node[7].core_layer 	data[7] 	737914
scalar geant_cost_network.node[7].content_store 	p_hit[7] 	0.045601624333971
scalar geant_cost_network.node[7].content_store 	hits[7] 	35261
scalar geant_cost_network.node[7].content_store 	misses[7] 	737979
scalar geant_cost_network.node[7].content_store 	decision_yes[7] 	7295
scalar geant_cost_network.node[7].content_store 	decision_no[7] 	730616
scalar geant_cost_network.node[7].content_store 	decision_ratio[7] 	0.0098860160642679
scalar geant_cost_network.node[7].content_store 	cache_value[7] 	10.698527668086
scalar geant_cost_network.node[7].content_store 	average_price_of_cache[7] 	4.1739130434783
scalar geant_cost_network.node[8].core_layer 	interests[8] 	606001
scalar geant_cost_network.node[8].core_layer 	data[8] 	578220
scalar geant_cost_network.node[8].content_store 	p_hit[8] 	0.045803554779613
scalar geant_cost_network.node[8].content_store 	hits[8] 	27757
scalar geant_cost_network.node[8].content_store 	misses[8] 	578244
scalar geant_cost_network.node[8].content_store 	decision_yes[8] 	5769
scalar geant_cost_network.node[8].content_store 	decision_no[8] 	572451
scalar geant_cost_network.node[8].content_store 	decision_ratio[8] 	0.0099771713188752
scalar geant_cost_network.node[8].content_store 	cache_value[8] 	0.72574862086302
scalar geant_cost_network.node[8].content_store 	average_price_of_cache[8] 	4.6739130434783
scalar geant_cost_network.node[9].core_layer 	interests[9] 	1266226
scalar geant_cost_network.node[9].core_layer 	repo_load[9] 	1014365
scalar geant_cost_network.node[9].core_layer 	data[9] 	226761
scalar geant_cost_network.node[9].content_store 	p_hit[9] 	0.019776090524124
scalar geant_cost_network.node[9].content_store 	hits[9] 	25041
scalar geant_cost_network.node[9].content_store 	misses[9] 	1241185
scalar geant_cost_network.node[9].content_store 	decision_yes[9] 	12437
scalar geant_cost_network.node[9].content_store 	decision_no[9] 	1228689
scalar geant_cost_network.node[9].content_store 	decision_ratio[9] 	0.010020739231955
scalar geant_cost_network.node[9].content_store 	cache_value[9] 	15.56105285555
scalar geant_cost_network.node[9].content_store 	average_price_of_cache[9] 	6.8695652173913
scalar geant_cost_network.node[10].core_layer 	interests[10] 	245208
scalar geant_cost_network.node[10].core_layer 	data[10] 	212354
scalar geant_cost_network.node[10].content_store 	p_hit[10] 	0.1338944895762
scalar geant_cost_network.node[10].content_store 	hits[10] 	32832
scalar geant_cost_network.node[10].content_store 	misses[10] 	212376
scalar geant_cost_network.node[10].content_store 	decision_yes[10] 	2183
scalar geant_cost_network.node[10].content_store 	decision_no[10] 	210171
scalar geant_cost_network.node[10].content_store 	decision_ratio[10] 	0.010280004144024
scalar geant_cost_network.node[10].content_store 	cache_value[10] 	14.80450195977
scalar geant_cost_network.node[10].content_store 	average_price_of_cache[10] 	2.9782608695652
scalar geant_cost_network.node[11].core_layer 	interests[11] 	199991
scalar geant_cost_network.node[11].core_layer 	data[11] 	162230
scalar geant_cost_network.node[11].content_store 	p_hit[11] 	0.18867349030706
scalar geant_cost_network.node[11].content_store 	hits[11] 	37733
scalar geant_cost_network.node[11].content_store 	misses[11] 	162258
scalar geant_cost_network.node[11].content_store 	decision_yes[11] 	1661
scalar geant_cost_network.node[11].content_store 	decision_no[11] 	160569
scalar geant_cost_network.node[11].content_store 	decision_ratio[11] 	0.010238550206497
scalar geant_cost_network.node[11].content_store 	cache_value[11] 	0.45620079640866
scalar geant_cost_network.node[11].content_store 	average_price_of_cache[11] 	1.4782608695652
scalar geant_cost_network.node[12].core_layer 	interests[12] 	900277
scalar geant_cost_network.node[12].core_layer 	data[12] 	859359
scalar geant_cost_network.node[12].content_store 	p_hit[12] 	0.045068351185246
scalar geant_cost_network.node[12].content_store 	hits[12] 	40574
scalar geant_cost_network.node[12].content_store 	misses[12] 	859703
scalar geant_cost_network.node[12].content_store 	decision_yes[12] 	8592
scalar geant_cost_network.node[12].content_store 	decision_no[12] 	850759
scalar geant_cost_network.node[12].content_store 	decision_ratio[12] 	0.0099982428600188
scalar geant_cost_network.node[12].content_store 	cache_value[12] 	10.660855634738
scalar geant_cost_network.node[12].content_store 	average_price_of_cache[12] 	3.5
scalar geant_cost_network.node[13].core_layer 	interests[13] 	301110
scalar geant_cost_network.node[13].core_layer 	data[13] 	261540
scalar geant_cost_network.node[13].content_store 	p_hit[13] 	0.13057686559729
scalar geant_cost_network.node[13].content_store 	hits[13] 	39318
scalar geant_cost_network.node[13].content_store 	misses[13] 	261792
scalar geant_cost_network.node[13].content_store 	decision_yes[13] 	2626
scalar geant_cost_network.node[13].content_store 	decision_no[13] 	258912
scalar geant_cost_network.node[13].content_store 	decision_ratio[13] 	0.010040605954011
scalar geant_cost_network.node[13].content_store 	cache_value[13] 	0.42937616267482
scalar geant_cost_network.node[13].content_store 	average_price_of_cache[13] 	2.2391304347826
scalar geant_cost_network.node[14].core_layer 	interests[14] 	769426
scalar geant_cost_network.node[14].core_layer 	data[14] 	717096
scalar geant_cost_network.node[14].content_store 	p_hit[14] 	0.067415190024772
scalar geant_cost_network.node[14].content_store 	hits[14] 	51871
scalar geant_cost_network.node[14].content_store 	misses[14] 	717555
scalar geant_cost_network.node[14].content_store 	decision_yes[14] 	7060
scalar geant_cost_network.node[14].content_store 	decision_no[14] 	710030
scalar geant_cost_network.node[14].content_store 	decision_ratio[14] 	0.0098453471670223
scalar geant_cost_network.node[14].content_store 	cache_value[14] 	0.1519429920606
scalar geant_cost_network.node[14].content_store 	average_price_of_cache[14] 	1.0434782608696
scalar geant_cost_network.node[15].core_layer 	interests[15] 	298850
scalar geant_cost_network.node[15].core_layer 	data[15] 	229107
scalar geant_cost_network.node[15].content_store 	p_hit[15] 	0.23320394846913
scalar geant_cost_network.node[15].content_store 	hits[15] 	69693
scalar geant_cost_network.node[15].content_store 	misses[15] 	229157
scalar geant_cost_network.node[15].content_store 	decision_yes[15] 	2315
scalar geant_cost_network.node[15].content_store 	decision_no[15] 	226792
scalar geant_cost_network.node[15].content_store 	decision_ratio[15] 	0.010104449012907
scalar geant_cost_network.node[15].content_store 	cache_value[15] 	0.17472292993578
scalar geant_cost_network.node[15].content_store 	average_price_of_cache[15] 	0.93478260869565
scalar geant_cost_network.node[16].core_layer 	interests[16] 	199426
scalar geant_cost_network.node[16].core_layer 	data[16] 	162095
scalar geant_cost_network.node[16].content_store 	p_hit[16] 	0.18684624873387
scalar geant_cost_network.node[16].content_store 	hits[16] 	37262
scalar geant_cost_network.node[16].content_store 	misses[16] 	162164
scalar geant_cost_network.node[16].content_store 	decision_yes[16] 	1659
scalar geant_cost_network.node[16].content_store 	decision_no[16] 	160436
scalar geant_cost_network.node[16].content_store 	decision_ratio[16] 	0.010234738887689
scalar geant_cost_network.node[16].content_store 	cache_value[16] 	0.4102963630366
scalar geant_cost_network.node[16].content_store 	average_price_of_cache[16] 	1.4347826086957
scalar geant_cost_network.node[17].core_layer 	interests[17] 	268881
scalar geant_cost_network.node[17].core_layer 	data[17] 	220208
scalar geant_cost_network.node[17].content_store 	p_hit[17] 	0.1808011722658
scalar geant_cost_network.node[17].content_store 	hits[17] 	48614
scalar geant_cost_network.node[17].content_store 	misses[17] 	220267
scalar geant_cost_network.node[17].content_store 	decision_yes[17] 	2174
scalar geant_cost_network.node[17].content_store 	decision_no[17] 	218033
scalar geant_cost_network.node[17].content_store 	decision_ratio[17] 	0.0098725290295041
scalar geant_cost_network.node[17].content_store 	cache_value[17] 	0.064364676686286
scalar geant_cost_network.node[17].content_store 	average_price_of_cache[17] 	0.69565217391304
scalar geant_cost_network.node[18].core_layer 	interests[18] 	1394902
scalar geant_cost_network.node[18].core_layer 	repo_load[18] 	1040310
scalar geant_cost_network.node[18].core_layer 	data[18] 	326149
scalar geant_cost_network.node[18].content_store 	p_hit[18] 	0.020331894283613
scalar geant_cost_network.node[18].content_store 	hits[18] 	28361
scalar geant_cost_network.node[18].content_store 	misses[18] 	1366541
scalar geant_cost_network.node[18].content_store 	decision_yes[18] 	13851
scalar geant_cost_network.node[18].content_store 	decision_no[18] 	1352606
scalar geant_cost_network.node[18].content_store 	decision_ratio[18] 	0.01013643312596
scalar geant_cost_network.node[18].content_store 	cache_value[18] 	0.022616332134325
scalar geant_cost_network.node[18].content_store 	average_price_of_cache[18] 	0.71739130434783
scalar geant_cost_network.node[19].core_layer 	interests[19] 	194544
scalar geant_cost_network.node[19].core_layer 	data[19] 	162233
scalar geant_cost_network.node[19].content_store 	p_hit[19] 	0.16598301669545
scalar geant_cost_network.node[19].content_store 	hits[19] 	32291
scalar geant_cost_network.node[19].content_store 	misses[19] 	162253
scalar geant_cost_network.node[19].content_store 	decision_yes[19] 	1602
scalar geant_cost_network.node[19].content_store 	decision_no[19] 	160631
scalar geant_cost_network.node[19].content_store 	decision_ratio[19] 	0.0098746864078209
scalar geant_cost_network.node[19].content_store 	cache_value[19] 	0.18792403242239
scalar geant_cost_network.node[19].content_store 	average_price_of_cache[19] 	1.5652173913043
scalar geant_cost_network.node[20].core_layer 	interests[20] 	206049
scalar geant_cost_network.node[20].core_layer 	data[20] 	165998
scalar geant_cost_network.node[20].content_store 	p_hit[20] 	0.19423535178525
scalar geant_cost_network.node[20].content_store 	hits[20] 	40022
scalar geant_cost_network.node[20].content_store 	misses[20] 	166027
scalar geant_cost_network.node[20].content_store 	decision_yes[20] 	1693
scalar geant_cost_network.node[20].content_store 	decision_no[20] 	164305
scalar geant_cost_network.node[20].content_store 	decision_ratio[20] 	0.010198918059254
scalar geant_cost_network.node[20].content_store 	cache_value[20] 	0.064112811136504
scalar geant_cost_network.node[20].content_store 	average_price_of_cache[20] 	0.78260869565217
scalar geant_cost_network.node[21].core_layer 	interests[21] 	283007
scalar geant_cost_network.node[21].core_layer 	data[21] 	223497
scalar geant_cost_network.node[21].content_store 	p_hit[21] 	0.20977926341045
scalar geant_cost_network.node[21].content_store 	hits[21] 	59369
scalar geant_cost_network.node[21].content_store 	misses[21] 	223638
scalar geant_cost_network.node[21].content_store 	decision_yes[21] 	2201
scalar geant_cost_network.node[21].content_store 	decision_no[21] 	221296
scalar geant_cost_network.node[21].content_store 	decision_ratio[21] 	0.0098480069083701
scalar geant_cost_network.node[21].content_store 	cache_value[21] 	0.12330311756321
scalar geant_cost_network.node[21].content_store 	average_price_of_cache[21] 	0.76086956521739
scalar geant_cost_network.client[0] 	hdistance[0] 	3.823804982516
scalar geant_cost_network.client[0] 	downloads[0] 	179307
scalar geant_cost_network.client[0] 	avg_time[0] 	0.052146096605
scalar geant_cost_network.client[0] 	interests_sent[0] 	179478
scalar geant_cost_network.client[1] 	hdistance[1] 	3.0190363674866
scalar geant_cost_network.client[1] 	downloads[1] 	179446
scalar geant_cost_network.client[1] 	avg_time[1] 	0.01289891988
scalar geant_cost_network.client[1] 	interests_sent[1] 	179533
scalar geant_cost_network.client[2] 	hdistance[2] 	3.3330490641267
scalar geant_cost_network.client[2] 	downloads[2] 	180580
scalar geant_cost_network.client[2] 	avg_time[2] 	0.017344748896
scalar geant_cost_network.client[2] 	interests_sent[2] 	180651
scalar geant_cost_network.client[3] 	hdistance[3] 	2.5384183085817
scalar geant_cost_network.client[3] 	downloads[3] 	179719
scalar geant_cost_network.client[3] 	avg_time[3] 	0.007500704084
scalar geant_cost_network.client[3] 	interests_sent[3] 	179765
scalar geant_cost_network.client[4] 	hdistance[4] 	2.5289809944284
scalar geant_cost_network.client[4] 	downloads[4] 	179842
scalar geant_cost_network.client[4] 	avg_time[4] 	0.005435222843
scalar geant_cost_network.client[4] 	interests_sent[4] 	179879
scalar geant_cost_network.client[5] 	hdistance[5] 	2.5686469711464
scalar geant_cost_network.client[5] 	downloads[5] 	179804
scalar geant_cost_network.client[5] 	avg_time[5] 	0.009238250712
scalar geant_cost_network.client[5] 	interests_sent[5] 	179859
scalar geant_cost_network.client[6] 	hdistance[6] 	2.6267573696145
scalar geant_cost_network.client[6] 	downloads[6] 	180810
scalar geant_cost_network.client[6] 	avg_time[6] 	0.006190753965
scalar geant_cost_network.client[6] 	interests_sent[6] 	180862
scalar geant_cost_network.client[7] 	hdistance[7] 	2.3386147200587
scalar geant_cost_network.client[7] 	downloads[7] 	179877
scalar geant_cost_network.client[7] 	avg_time[7] 	0.004643104285
scalar geant_cost_network.client[7] 	interests_sent[7] 	179895
scalar geant_cost_network.client[8] 	hdistance[8] 	2.6375984711281
scalar geant_cost_network.client[8] 	downloads[8] 	180002
scalar geant_cost_network.client[8] 	avg_time[8] 	0.005019946635
scalar geant_cost_network.client[8] 	interests_sent[8] 	180018
scalar geant_cost_network.client[9] 	hdistance[9] 	2.8370542025403
scalar geant_cost_network.client[9] 	downloads[9] 	180379
scalar geant_cost_network.client[9] 	avg_time[9] 	0.005727899934
scalar geant_cost_network.client[9] 	interests_sent[9] 	180396
scalar geant_cost_network.client[10] 	hdistance[10] 	3.6568694766219
scalar geant_cost_network.client[10] 	downloads[10] 	180596
scalar geant_cost_network.client[10] 	avg_time[10] 	0.007401567241
scalar geant_cost_network.client[10] 	interests_sent[10] 	180613
scalar geant_cost_network.client[11] 	hdistance[11] 	3.6141107153557
scalar geant_cost_network.client[11] 	downloads[11] 	180246
scalar geant_cost_network.client[11] 	avg_time[11] 	0.009614553056
scalar geant_cost_network.client[11] 	interests_sent[11] 	180274
scalar geant_cost_network.client[12] 	hdistance[12] 	2.7947211304875
scalar geant_cost_network.client[12] 	downloads[12] 	179887
scalar geant_cost_network.client[12] 	avg_time[12] 	0.008816867883
scalar geant_cost_network.client[12] 	interests_sent[12] 	179957
scalar geant_cost_network.client[13] 	hdistance[13] 	2.835416840061
scalar geant_cost_network.client[13] 	downloads[13] 	180225
scalar geant_cost_network.client[13] 	avg_time[13] 	0.042229618898
scalar geant_cost_network.client[13] 	interests_sent[13] 	180418
scalar geant_cost_network.client[14] 	hdistance[14] 	2.5086682997439
scalar geant_cost_network.client[14] 	downloads[14] 	179620
scalar geant_cost_network.client[14] 	avg_time[14] 	0.027848408039
scalar geant_cost_network.client[14] 	interests_sent[14] 	179700
scalar geant_cost_network.client[15] 	hdistance[15] 	2.752239635434
scalar geant_cost_network.client[15] 	downloads[15] 	179940
scalar geant_cost_network.client[15] 	avg_time[15] 	0.010839140872
scalar geant_cost_network.client[15] 	interests_sent[15] 	179970
scalar geant_cost_network.client[16] 	hdistance[16] 	3.3163307945599
scalar geant_cost_network.client[16] 	downloads[16] 	179483
scalar geant_cost_network.client[16] 	avg_time[16] 	0.036044407134
scalar geant_cost_network.client[16] 	interests_sent[16] 	179552
scalar geant_cost_network.client[17] 	hdistance[17] 	3.0178310289816
scalar geant_cost_network.client[17] 	downloads[17] 	180528
scalar geant_cost_network.client[17] 	avg_time[17] 	0.013448784469
scalar geant_cost_network.client[17] 	interests_sent[17] 	180565
scalar geant_cost_network.client[18] 	hdistance[18] 	2.7697263993894
scalar geant_cost_network.client[18] 	downloads[18] 	180811
scalar geant_cost_network.client[18] 	avg_time[18] 	0.008104304616
scalar geant_cost_network.client[18] 	interests_sent[18] 	180835
scalar geant_cost_network.client[19] 	hdistance[19] 	3.5742949081961
scalar geant_cost_network.client[19] 	downloads[19] 	179622
scalar geant_cost_network.client[19] 	avg_time[19] 	0.009598614248
scalar geant_cost_network.client[19] 	interests_sent[19] 	179642
scalar geant_cost_network.client[20] 	hdistance[20] 	3.5455809059697
scalar geant_cost_network.client[20] 	downloads[20] 	180580
scalar geant_cost_network.client[20] 	avg_time[20] 	0.010027018046
scalar geant_cost_network.client[20] 	interests_sent[20] 	180608
scalar geant_cost_network.client[21] 	hdistance[21] 	3.2699365051173
scalar geant_cost_network.client[21] 	downloads[21] 	180172
scalar geant_cost_network.client[21] 	avg_time[21] 	0.012185172276
scalar geant_cost_network.client[21] 	interests_sent[21] 	180234
