version 2
run General-0-20160730-18:52:33-5750
attr C 1e2
attr D lce
attr F spr
attr R lru
attr a 1
attr brates 1
attr configname General
attr ctlg 1e4
attr datetime 20160730-18:52:33
attr experiment General
attr inifile omnetpp.ini
attr iterationvars "$net=base, $rep=0, $lambda=100, $a=1, $ctlg=1e4, $brates=1, $F=spr, $ttl=1000, $D=lce, $R=lru, $proactiveprob=0, $C=1e2, $window=60, $variance=1000, $mytime=1800"
attr iterationvars2 "$net=base, $rep=0, $lambda=100, $a=1, $ctlg=1e4, $brates=1, $F=spr, $ttl=1000, $D=lce, $R=lru, $proactiveprob=0, $C=1e2, $window=60, $variance=1000, $mytime=1800, $repetition=0"
attr lambda 100
attr measurement "$net=base, $rep=0, $lambda=100, $a=1, $ctlg=1e4, $brates=1, $F=spr, $ttl=1000, $D=lce, $R=lru, $proactiveprob=0, $C=1e2, $window=60, $variance=1000, $mytime=1800"
attr mytime 1800
attr net base
attr network networks.${net=base}_network
attr proactiveprob 0
attr processid 5750
attr rep 0
attr repetition 0
attr replication #0
attr resultdir results
attr runnumber 0
attr seedset 0
attr ttl 1000
attr variance 1000
attr window 60

scalar . 	C 	1e2
scalar . 	a 	1
scalar . 	brates 	1
scalar . 	ctlg 	1e4
scalar . 	lambda 	100
scalar . 	mytime 	1800
scalar . 	proactiveprob 	0
scalar . 	rep 	0
scalar . 	ttl 	1000
scalar . 	variance 	1000
scalar . 	window 	60
scalar base_network.content_distribution 	repo-0 	0
scalar base_network.content_distribution 	client-0 	0
scalar base_network.content_distribution 	repo-0_card 	10000
scalar base_network.content_distribution 	repo-0_price 	0
scalar base_network.statistics 	stabilization_time 	70
scalar base_network.statistics 	p_hit 	0.34154189869619
scalar base_network.statistics 	interests 	179934
scalar base_network.statistics 	data 	0
scalar base_network.statistics 	hdistance 	0.6584581013038
scalar base_network.statistics 	avg_time 	0
scalar base_network.statistics 	downloads 	179934
scalar base_network.statistics 	total_cost 	0
scalar base_network.statistics 	total_replicas 	10000
scalar base_network.statistics 	"slots_per_representation 100:" 	0
scalar base_network.statistics 	inner_hit 	0.34154189869619
scalar base_network.statistics 	execution_time 	2
scalar base_network.node[0].core_layer 	interests[0] 	179934
scalar base_network.node[0].core_layer 	repo_load[0] 	118479
scalar base_network.node[0].core_layer 	data[0] 	0
scalar base_network.node[0].core_layer 	slots_sent[face$o[1]->client[0]] 	17993400
scalar base_network.node[0].content_store 	p_hit[0] 	0.34154189869619
scalar base_network.node[0].content_store 	hits[0] 	61455
scalar base_network.node[0].content_store 	misses[0] 	118479
scalar base_network.node[0].content_store 	decision_yes[0] 	118479
scalar base_network.node[0].content_store 	decision_no[0] 	0
scalar base_network.node[0].content_store 	decision_ratio[0] 	1
scalar base_network.client[0] 	hdistance[0].real 	0.6584581013038
scalar base_network.client[0] 	downloads[0].real 	179934
scalar base_network.client[0] 	avg_time[0].real 	0
