version 2
run General-15-20150224-18:09:53-13610
attr D costaware0.01
attr F nrr
attr R lru
attr a 1
attr configname General
attr csize 1e3
attr ctlg 1e5
attr datetime 20150224-18:09:53
attr experiment General
attr inifile omnetpp.ini
attr iterationvars "$rep=16, $net=abilene_cost, $lambda=100, $a=1, $ctlg=1e5, $F=nrr, $ttl=10, $D=costaware0.01, $R=lru, $csize=1e3, $window=60, $variance=0.05, $mytime=1800, $kappa=1, $priceratiovalue=10, $pricebits=0"
attr iterationvars2 "$rep=16, $net=abilene_cost, $lambda=100, $a=1, $ctlg=1e5, $F=nrr, $ttl=10, $D=costaware0.01, $R=lru, $csize=1e3, $window=60, $variance=0.05, $mytime=1800, $kappa=1, $priceratiovalue=10, $pricebits=0, $repetition=0"
attr kappa 1
attr lambda 100
attr measurement "$rep=16, $net=abilene_cost, $lambda=100, $a=1, $ctlg=1e5, $F=nrr, $ttl=10, $D=costaware0.01, $R=lru, $csize=1e3, $window=60, $variance=0.05, $mytime=1800, $kappa=1, $priceratiovalue=10, $pricebits=0"
attr mytime 1800
attr net abilene_cost
attr network networks.${net=abilene_cost}_network
attr pricebits 0
attr priceratiovalue 10
attr processid 13610
attr rep 16
attr repetition 0
attr replication #0
attr resultdir results
attr runnumber 15
attr seedset 16
attr ttl 10
attr variance 0.05
attr window 60

scalar . 	a 	1
scalar . 	csize 	1e3
scalar . 	ctlg 	1e5
scalar . 	kappa 	1
scalar . 	lambda 	100
scalar . 	mytime 	1800
scalar . 	pricebits 	0
scalar . 	priceratiovalue 	10
scalar . 	rep 	16
scalar . 	ttl 	10
scalar . 	variance 	0.05
scalar . 	window 	60
scalar abilene_cost_network.content_distribution 	repo-0 	10
scalar abilene_cost_network.content_distribution 	repo-1 	8
scalar abilene_cost_network.content_distribution 	repo-2 	5
scalar abilene_cost_network.content_distribution 	client-0 	2
scalar abilene_cost_network.content_distribution 	client-1 	5
scalar abilene_cost_network.content_distribution 	client-2 	1
scalar abilene_cost_network.content_distribution 	client-3 	4
scalar abilene_cost_network.content_distribution 	client-4 	0
scalar abilene_cost_network.content_distribution 	client-5 	3
scalar abilene_cost_network.content_distribution 	client-6 	10
scalar abilene_cost_network.content_distribution 	client-7 	6
scalar abilene_cost_network.content_distribution 	client-8 	8
scalar abilene_cost_network.content_distribution 	client-9 	9
scalar abilene_cost_network.content_distribution 	client-10 	7
scalar abilene_cost_network.content_distribution 	repo-0_card 	33301
scalar abilene_cost_network.content_distribution 	repo-0_price 	10
scalar abilene_cost_network.content_distribution 	repo-1_card 	33211
scalar abilene_cost_network.content_distribution 	repo-1_price 	0
scalar abilene_cost_network.content_distribution 	repo-2_card 	33488
scalar abilene_cost_network.content_distribution 	repo-2_price 	1
scalar abilene_cost_network.statistics 	repo_popularity[0] 	0.27436195021761
scalar abilene_cost_network.statistics 	repo_popularity[1] 	0.3855036897569
scalar abilene_cost_network.statistics 	repo_popularity[2] 	0.3401343600255
scalar abilene_cost_network.statistics 	stabilization_time 	222.1
scalar abilene_cost_network.statistics 	p_hit 	0.10500555790861
scalar abilene_cost_network.statistics 	interests 	533801.18181818
scalar abilene_cost_network.statistics 	data 	353669
scalar abilene_cost_network.statistics 	hdistance 	2.7033123643682
scalar abilene_cost_network.statistics 	avg_time 	0.012952754475
scalar abilene_cost_network.statistics 	downloads 	1956752
scalar abilene_cost_network.statistics 	total_cost 	3077131
scalar abilene_cost_network.statistics 	total_replicas 	100000
scalar abilene_cost_network.statistics 	inner_hit 	0.33647493397222
scalar abilene_cost_network.statistics 	interests_sent 	1981450
scalar abilene_cost_network.node[0].core_layer 	interests[0] 	195963
scalar abilene_cost_network.node[0].core_layer 	data[0] 	171830
scalar abilene_cost_network.node[0].core_layer 	repo_int[0] 	1298354
scalar abilene_cost_network.node[0].content_store 	p_hit[0] 	0.10233054199007
scalar abilene_cost_network.node[0].content_store 	hits[0] 	20053
scalar abilene_cost_network.node[0].content_store 	misses[0] 	175910
scalar abilene_cost_network.node[0].content_store 	decision_yes[0] 	833
scalar abilene_cost_network.node[0].content_store 	decision_no[0] 	170997
scalar abilene_cost_network.node[0].content_store 	decision_ratio[0] 	0.0048478147005762
scalar abilene_cost_network.node[0].content_store 	cache_value[0] 	3.0222175857102
scalar abilene_cost_network.node[0].content_store 	correction_factor[0] 	0.0027225701061802
scalar abilene_cost_network.node[0].content_store 	kappa[0] 	1
scalar abilene_cost_network.node[1].core_layer 	interests[1] 	514733
scalar abilene_cost_network.node[1].core_layer 	data[1] 	455721
scalar abilene_cost_network.node[1].content_store 	p_hit[1] 	0.09807220442443
scalar abilene_cost_network.node[1].content_store 	hits[1] 	50481
scalar abilene_cost_network.node[1].content_store 	misses[1] 	464252
scalar abilene_cost_network.node[1].content_store 	decision_yes[1] 	3370
scalar abilene_cost_network.node[1].content_store 	decision_no[1] 	452351
scalar abilene_cost_network.node[1].content_store 	decision_ratio[1] 	0.0073948753733095
scalar abilene_cost_network.node[1].content_store 	cache_value[1] 	2.5157393462749
scalar abilene_cost_network.node[1].content_store 	correction_factor[1] 	0.0027225701061802
scalar abilene_cost_network.node[1].content_store 	kappa[1] 	1
scalar abilene_cost_network.node[2].core_layer 	interests[2] 	754220
scalar abilene_cost_network.node[2].core_layer 	data[2] 	708107
scalar abilene_cost_network.node[2].content_store 	p_hit[2] 	0.039801384211503
scalar abilene_cost_network.node[2].content_store 	hits[2] 	30019
scalar abilene_cost_network.node[2].content_store 	misses[2] 	724201
scalar abilene_cost_network.node[2].content_store 	decision_yes[2] 	2795
scalar abilene_cost_network.node[2].content_store 	decision_no[2] 	705311
scalar abilene_cost_network.node[2].content_store 	decision_ratio[2] 	0.0039471491556349
scalar abilene_cost_network.node[2].content_store 	cache_value[2] 	1.3228697620417
scalar abilene_cost_network.node[2].content_store 	correction_factor[2] 	0.0027225701061802
scalar abilene_cost_network.node[2].content_store 	kappa[2] 	1
scalar abilene_cost_network.node[3].core_layer 	interests[3] 	583644
scalar abilene_cost_network.node[3].core_layer 	data[3] 	505041
scalar abilene_cost_network.node[3].content_store 	p_hit[3] 	0.12268437609228
scalar abilene_cost_network.node[3].content_store 	hits[3] 	71604
scalar abilene_cost_network.node[3].content_store 	misses[3] 	512040
scalar abilene_cost_network.node[3].content_store 	decision_yes[3] 	2275
scalar abilene_cost_network.node[3].content_store 	decision_no[3] 	502765
scalar abilene_cost_network.node[3].content_store 	decision_ratio[3] 	0.0045045936955489
scalar abilene_cost_network.node[3].content_store 	cache_value[3] 	3.4691888192818
scalar abilene_cost_network.node[3].content_store 	correction_factor[3] 	0.0027225701061802
scalar abilene_cost_network.node[3].content_store 	kappa[3] 	1
scalar abilene_cost_network.node[4].core_layer 	interests[4] 	446955
scalar abilene_cost_network.node[4].core_layer 	data[4] 	410037
scalar abilene_cost_network.node[4].content_store 	p_hit[4] 	0.07328030786097
scalar abilene_cost_network.node[4].content_store 	hits[4] 	32753
scalar abilene_cost_network.node[4].content_store 	misses[4] 	414202
scalar abilene_cost_network.node[4].content_store 	decision_yes[4] 	1702
scalar abilene_cost_network.node[4].content_store 	decision_no[4] 	408335
scalar abilene_cost_network.node[4].content_store 	decision_ratio[4] 	0.0041508449237508
scalar abilene_cost_network.node[4].content_store 	cache_value[4] 	1.3074406670329
scalar abilene_cost_network.node[4].content_store 	correction_factor[4] 	0.0027225701061802
scalar abilene_cost_network.node[4].content_store 	kappa[4] 	1
scalar abilene_cost_network.node[5].core_layer 	interests[5] 	608664
scalar abilene_cost_network.node[5].core_layer 	repo_load[5] 	302351
scalar abilene_cost_network.node[5].core_layer 	data[5] 	117802
scalar abilene_cost_network.node[5].content_store 	p_hit[5] 	0.30628885559192
scalar abilene_cost_network.node[5].content_store 	hits[5] 	186427
scalar abilene_cost_network.node[5].content_store 	misses[5] 	422237
scalar abilene_cost_network.node[5].content_store 	decision_yes[5] 	1464
scalar abilene_cost_network.node[5].content_store 	decision_no[5] 	418689
scalar abilene_cost_network.node[5].content_store 	decision_ratio[5] 	0.003484444952196
scalar abilene_cost_network.node[5].content_store 	cache_value[5] 	2.7023385049004
scalar abilene_cost_network.node[5].content_store 	correction_factor[5] 	0.0027225701061802
scalar abilene_cost_network.node[5].content_store 	kappa[5] 	1
scalar abilene_cost_network.node[6].core_layer 	interests[6] 	418885
scalar abilene_cost_network.node[6].core_layer 	data[6] 	361356
scalar abilene_cost_network.node[6].content_store 	p_hit[6] 	0.12416056912995
scalar abilene_cost_network.node[6].content_store 	hits[6] 	52009
scalar abilene_cost_network.node[6].content_store 	misses[6] 	366876
scalar abilene_cost_network.node[6].content_store 	decision_yes[6] 	905
scalar abilene_cost_network.node[6].content_store 	decision_no[6] 	360451
scalar abilene_cost_network.node[6].content_store 	decision_ratio[6] 	0.0025044554400646
scalar abilene_cost_network.node[6].content_store 	cache_value[6] 	1.6822865947301
scalar abilene_cost_network.node[6].content_store 	correction_factor[6] 	0.0027225701061802
scalar abilene_cost_network.node[6].content_store 	kappa[6] 	1
scalar abilene_cost_network.node[7].core_layer 	interests[7] 	493924
scalar abilene_cost_network.node[7].core_layer 	data[7] 	461630
scalar abilene_cost_network.node[7].content_store 	p_hit[7] 	0.051858180610782
scalar abilene_cost_network.node[7].content_store 	hits[7] 	25614
scalar abilene_cost_network.node[7].content_store 	misses[7] 	468310
scalar abilene_cost_network.node[7].content_store 	decision_yes[7] 	1499
scalar abilene_cost_network.node[7].content_store 	decision_no[7] 	460131
scalar abilene_cost_network.node[7].content_store 	decision_ratio[7] 	0.003247189307454
scalar abilene_cost_network.node[7].content_store 	cache_value[7] 	1.570168371076
scalar abilene_cost_network.node[7].content_store 	correction_factor[7] 	0.0027225701061802
scalar abilene_cost_network.node[7].content_store 	kappa[7] 	1
scalar abilene_cost_network.node[8].core_layer 	interests[8] 	988841
scalar abilene_cost_network.node[8].core_layer 	repo_load[8] 	718525
scalar abilene_cost_network.node[8].core_layer 	data[8] 	238476
scalar abilene_cost_network.node[8].content_store 	p_hit[8] 	0.030153482713601
scalar abilene_cost_network.node[8].content_store 	hits[8] 	29817
scalar abilene_cost_network.node[8].content_store 	misses[8] 	959024
scalar abilene_cost_network.node[8].content_store 	decision_yes[8] 	2090
scalar abilene_cost_network.node[8].content_store 	decision_no[8] 	954911
scalar abilene_cost_network.node[8].content_store 	decision_ratio[8] 	0.0021839057639438
scalar abilene_cost_network.node[8].content_store 	cache_value[8] 	1.78208733437
scalar abilene_cost_network.node[8].content_store 	correction_factor[8] 	0.0027225701061802
scalar abilene_cost_network.node[8].content_store 	kappa[8] 	1
scalar abilene_cost_network.node[9].core_layer 	interests[9] 	364179
scalar abilene_cost_network.node[9].core_layer 	data[9] 	326799
scalar abilene_cost_network.node[9].content_store 	p_hit[9] 	0.083804942075188
scalar abilene_cost_network.node[9].content_store 	hits[9] 	30520
scalar abilene_cost_network.node[9].content_store 	misses[9] 	333659
scalar abilene_cost_network.node[9].content_store 	decision_yes[9] 	2675
scalar abilene_cost_network.node[9].content_store 	decision_no[9] 	324124
scalar abilene_cost_network.node[9].content_store 	decision_ratio[9] 	0.0081854595638298
scalar abilene_cost_network.node[9].content_store 	cache_value[9] 	3.8873959416899
scalar abilene_cost_network.node[9].content_store 	correction_factor[9] 	0.0027225701061802
scalar abilene_cost_network.node[9].content_store 	kappa[9] 	1
scalar abilene_cost_network.node[10].core_layer 	interests[10] 	501805
scalar abilene_cost_network.node[10].core_layer 	repo_load[10] 	277478
scalar abilene_cost_network.node[10].core_layer 	data[10] 	133560
scalar abilene_cost_network.node[10].content_store 	p_hit[10] 	0.17392413387671
scalar abilene_cost_network.node[10].content_store 	hits[10] 	87276
scalar abilene_cost_network.node[10].content_store 	misses[10] 	414529
scalar abilene_cost_network.node[10].content_store 	decision_yes[10] 	7460
scalar abilene_cost_network.node[10].content_store 	decision_no[10] 	403578
scalar abilene_cost_network.node[10].content_store 	decision_ratio[10] 	0.01814917355573
scalar abilene_cost_network.node[10].content_store 	cache_value[10] 	9.6739802326647
scalar abilene_cost_network.node[10].content_store 	correction_factor[10] 	0.0027225701061802
scalar abilene_cost_network.node[10].content_store 	kappa[10] 	1
scalar abilene_cost_network.client[0] 	hdistance[0] 	3.5519791041055
scalar abilene_cost_network.client[0] 	downloads[0] 	176494
scalar abilene_cost_network.client[0] 	avg_time[0] 	0.020172158914
scalar abilene_cost_network.client[0] 	interests_sent[0] 	180574
scalar abilene_cost_network.client[1] 	hdistance[1] 	2.8431527004901
scalar abilene_cost_network.client[1] 	downloads[1] 	177727
scalar abilene_cost_network.client[1] 	avg_time[1] 	0.013054614301
scalar abilene_cost_network.client[1] 	interests_sent[1] 	180092
scalar abilene_cost_network.client[2] 	hdistance[2] 	2.371567460763
scalar abilene_cost_network.client[2] 	downloads[2] 	178148
scalar abilene_cost_network.client[2] 	avg_time[2] 	0.01022827948
scalar abilene_cost_network.client[2] 	interests_sent[2] 	179615
scalar abilene_cost_network.client[3] 	hdistance[3] 	2.6619350921673
scalar abilene_cost_network.client[3] 	downloads[3] 	177883
scalar abilene_cost_network.client[3] 	avg_time[3] 	0.011422510367
scalar abilene_cost_network.client[3] 	interests_sent[3] 	179869
scalar abilene_cost_network.client[4] 	hdistance[4] 	3.0158698182469
scalar abilene_cost_network.client[4] 	downloads[4] 	178704
scalar abilene_cost_network.client[4] 	avg_time[4] 	0.011980208093
scalar abilene_cost_network.client[4] 	interests_sent[4] 	180783
scalar abilene_cost_network.client[5] 	hdistance[5] 	2.9209689603464
scalar abilene_cost_network.client[5] 	downloads[5] 	177386
scalar abilene_cost_network.client[5] 	avg_time[5] 	0.012127760006
scalar abilene_cost_network.client[5] 	interests_sent[5] 	179468
scalar abilene_cost_network.client[6] 	hdistance[6] 	2.6281170211569
scalar abilene_cost_network.client[6] 	downloads[6] 	177814
scalar abilene_cost_network.client[6] 	avg_time[6] 	0.012277921596
scalar abilene_cost_network.client[6] 	interests_sent[6] 	179715
scalar abilene_cost_network.client[7] 	hdistance[7] 	2.2877971633267
scalar abilene_cost_network.client[7] 	downloads[7] 	178942
scalar abilene_cost_network.client[7] 	avg_time[7] 	0.010502312027
scalar abilene_cost_network.client[7] 	interests_sent[7] 	180473
scalar abilene_cost_network.client[8] 	hdistance[8] 	2.024279787133
scalar abilene_cost_network.client[8] 	downloads[8] 	179079
scalar abilene_cost_network.client[8] 	avg_time[8] 	0.009040332806
scalar abilene_cost_network.client[8] 	interests_sent[8] 	179795
scalar abilene_cost_network.client[9] 	hdistance[9] 	2.5159125583385
scalar abilene_cost_network.client[9] 	downloads[9] 	177627
scalar abilene_cost_network.client[9] 	avg_time[9] 	0.015940745232
scalar abilene_cost_network.client[9] 	interests_sent[9] 	180712
scalar abilene_cost_network.client[10] 	hdistance[10] 	2.9148563419762
scalar abilene_cost_network.client[10] 	downloads[10] 	176948
scalar abilene_cost_network.client[10] 	avg_time[10] 	0.015733456412
scalar abilene_cost_network.client[10] 	interests_sent[10] 	180354
