version 2
run General-6-20150224-18:04:14-13591
attr D costaware0.01
attr F nrr
attr R lru
attr a 1
attr configname General
attr csize 1e3
attr ctlg 1e5
attr datetime 20150224-18:04:14
attr experiment General
attr inifile omnetpp.ini
attr iterationvars "$rep=7, $net=abilene_cost, $lambda=100, $a=1, $ctlg=1e5, $F=nrr, $ttl=10, $D=costaware0.01, $R=lru, $csize=1e3, $window=60, $variance=0.05, $mytime=1800, $kappa=1, $priceratiovalue=10, $pricebits=0"
attr iterationvars2 "$rep=7, $net=abilene_cost, $lambda=100, $a=1, $ctlg=1e5, $F=nrr, $ttl=10, $D=costaware0.01, $R=lru, $csize=1e3, $window=60, $variance=0.05, $mytime=1800, $kappa=1, $priceratiovalue=10, $pricebits=0, $repetition=0"
attr kappa 1
attr lambda 100
attr measurement "$rep=7, $net=abilene_cost, $lambda=100, $a=1, $ctlg=1e5, $F=nrr, $ttl=10, $D=costaware0.01, $R=lru, $csize=1e3, $window=60, $variance=0.05, $mytime=1800, $kappa=1, $priceratiovalue=10, $pricebits=0"
attr mytime 1800
attr net abilene_cost
attr network networks.${net=abilene_cost}_network
attr pricebits 0
attr priceratiovalue 10
attr processid 13591
attr rep 7
attr repetition 0
attr replication #0
attr resultdir results
attr runnumber 6
attr seedset 7
attr ttl 10
attr variance 0.05
attr window 60

scalar . 	a 	1
scalar . 	csize 	1e3
scalar . 	ctlg 	1e5
scalar . 	kappa 	1
scalar . 	lambda 	100
scalar . 	mytime 	1800
scalar . 	pricebits 	0
scalar . 	priceratiovalue 	10
scalar . 	rep 	7
scalar . 	ttl 	10
scalar . 	variance 	0.05
scalar . 	window 	60
scalar abilene_cost_network.content_distribution 	repo-0 	5
scalar abilene_cost_network.content_distribution 	repo-1 	4
scalar abilene_cost_network.content_distribution 	repo-2 	0
scalar abilene_cost_network.content_distribution 	client-0 	6
scalar abilene_cost_network.content_distribution 	client-1 	4
scalar abilene_cost_network.content_distribution 	client-2 	8
scalar abilene_cost_network.content_distribution 	client-3 	2
scalar abilene_cost_network.content_distribution 	client-4 	10
scalar abilene_cost_network.content_distribution 	client-5 	7
scalar abilene_cost_network.content_distribution 	client-6 	9
scalar abilene_cost_network.content_distribution 	client-7 	5
scalar abilene_cost_network.content_distribution 	client-8 	1
scalar abilene_cost_network.content_distribution 	client-9 	3
scalar abilene_cost_network.content_distribution 	client-10 	0
scalar abilene_cost_network.content_distribution 	repo-0_card 	33109
scalar abilene_cost_network.content_distribution 	repo-0_price 	10
scalar abilene_cost_network.content_distribution 	repo-1_card 	33516
scalar abilene_cost_network.content_distribution 	repo-1_price 	0
scalar abilene_cost_network.content_distribution 	repo-2_card 	33375
scalar abilene_cost_network.content_distribution 	repo-2_price 	1
scalar abilene_cost_network.statistics 	repo_popularity[0] 	0.36942561005254
scalar abilene_cost_network.statistics 	repo_popularity[1] 	0.30946721863058
scalar abilene_cost_network.statistics 	repo_popularity[2] 	0.32110717131689
scalar abilene_cost_network.statistics 	stabilization_time 	278.9
scalar abilene_cost_network.statistics 	p_hit 	0.11589733867307
scalar abilene_cost_network.statistics 	interests 	577329.90909091
scalar abilene_cost_network.statistics 	data 	397514.90909091
scalar abilene_cost_network.statistics 	hdistance 	2.9086926196748
scalar abilene_cost_network.statistics 	avg_time 	0.013229767386
scalar abilene_cost_network.statistics 	downloads 	1952619
scalar abilene_cost_network.statistics 	total_cost 	2974364
scalar abilene_cost_network.statistics 	total_replicas 	100000
scalar abilene_cost_network.statistics 	inner_hit 	0.40304278510042
scalar abilene_cost_network.statistics 	interests_sent 	1977957
scalar abilene_cost_network.node[0].core_layer 	interests[0] 	543824
scalar abilene_cost_network.node[0].core_layer 	repo_load[0] 	301514
scalar abilene_cost_network.node[0].core_layer 	data[0] 	117780
scalar abilene_cost_network.node[0].core_layer 	repo_int[0] 	1165630
scalar abilene_cost_network.node[0].content_store 	p_hit[0] 	0.22162133337256
scalar abilene_cost_network.node[0].content_store 	hits[0] 	120523
scalar abilene_cost_network.node[0].content_store 	misses[0] 	423301
scalar abilene_cost_network.node[0].content_store 	decision_yes[0] 	1474
scalar abilene_cost_network.node[0].content_store 	decision_no[0] 	417820
scalar abilene_cost_network.node[0].content_store 	decision_ratio[0] 	0.0035154330851384
scalar abilene_cost_network.node[0].content_store 	cache_value[0] 	1.8136184187207
scalar abilene_cost_network.node[0].content_store 	correction_factor[0] 	0.0027225701061802
scalar abilene_cost_network.node[0].content_store 	kappa[0] 	1
scalar abilene_cost_network.node[1].core_layer 	interests[1] 	710846
scalar abilene_cost_network.node[1].core_layer 	data[1] 	624798
scalar abilene_cost_network.node[1].content_store 	p_hit[1] 	0.099539140685887
scalar abilene_cost_network.node[1].content_store 	hits[1] 	70757
scalar abilene_cost_network.node[1].content_store 	misses[1] 	640089
scalar abilene_cost_network.node[1].content_store 	decision_yes[1] 	2381
scalar abilene_cost_network.node[1].content_store 	decision_no[1] 	622416
scalar abilene_cost_network.node[1].content_store 	decision_ratio[1] 	0.0038108377601045
scalar abilene_cost_network.node[1].content_store 	cache_value[1] 	1.1858082181647
scalar abilene_cost_network.node[1].content_store 	correction_factor[1] 	0.0027225701061802
scalar abilene_cost_network.node[1].content_store 	kappa[1] 	1
scalar abilene_cost_network.node[2].core_layer 	interests[2] 	906548
scalar abilene_cost_network.node[2].core_layer 	data[2] 	845418
scalar abilene_cost_network.node[2].content_store 	p_hit[2] 	0.050779440250268
scalar abilene_cost_network.node[2].content_store 	hits[2] 	46034
scalar abilene_cost_network.node[2].content_store 	misses[2] 	860514
scalar abilene_cost_network.node[2].content_store 	decision_yes[2] 	2828
scalar abilene_cost_network.node[2].content_store 	decision_no[2] 	842588
scalar abilene_cost_network.node[2].content_store 	decision_ratio[2] 	0.0033450987442868
scalar abilene_cost_network.node[2].content_store 	cache_value[2] 	1.6356145577947
scalar abilene_cost_network.node[2].content_store 	correction_factor[2] 	0.0027225701061802
scalar abilene_cost_network.node[2].content_store 	kappa[2] 	1
scalar abilene_cost_network.node[3].core_layer 	interests[3] 	971000
scalar abilene_cost_network.node[3].core_layer 	data[3] 	918509
scalar abilene_cost_network.node[3].content_store 	p_hit[3] 	0.043148300720906
scalar abilene_cost_network.node[3].content_store 	hits[3] 	41897
scalar abilene_cost_network.node[3].content_store 	misses[3] 	929103
scalar abilene_cost_network.node[3].content_store 	decision_yes[3] 	3452
scalar abilene_cost_network.node[3].content_store 	decision_no[3] 	915057
scalar abilene_cost_network.node[3].content_store 	decision_ratio[3] 	0.0037582647529855
scalar abilene_cost_network.node[3].content_store 	cache_value[3] 	2.1341630808707
scalar abilene_cost_network.node[3].content_store 	correction_factor[3] 	0.0027225701061802
scalar abilene_cost_network.node[3].content_store 	kappa[3] 	1
scalar abilene_cost_network.node[4].core_layer 	interests[4] 	1003953
scalar abilene_cost_network.node[4].core_layer 	repo_load[4] 	596831
scalar abilene_cost_network.node[4].core_layer 	data[4] 	351377
scalar abilene_cost_network.node[4].content_store 	p_hit[4] 	0.048563030341062
scalar abilene_cost_network.node[4].content_store 	hits[4] 	48755
scalar abilene_cost_network.node[4].content_store 	misses[4] 	955198
scalar abilene_cost_network.node[4].content_store 	decision_yes[4] 	3858
scalar abilene_cost_network.node[4].content_store 	decision_no[4] 	944350
scalar abilene_cost_network.node[4].content_store 	decision_ratio[4] 	0.0040687275365743
scalar abilene_cost_network.node[4].content_store 	cache_value[4] 	5.4637276217757
scalar abilene_cost_network.node[4].content_store 	correction_factor[4] 	0.0027225701061802
scalar abilene_cost_network.node[4].content_store 	kappa[4] 	1
scalar abilene_cost_network.node[5].core_layer 	interests[5] 	667915
scalar abilene_cost_network.node[5].core_layer 	repo_load[5] 	267285
scalar abilene_cost_network.node[5].core_layer 	data[5] 	176224
scalar abilene_cost_network.node[5].content_store 	p_hit[5] 	0.33408442691061
scalar abilene_cost_network.node[5].content_store 	hits[5] 	223140
scalar abilene_cost_network.node[5].content_store 	misses[5] 	444775
scalar abilene_cost_network.node[5].content_store 	decision_yes[5] 	7367
scalar abilene_cost_network.node[5].content_store 	decision_no[5] 	436142
scalar abilene_cost_network.node[5].content_store 	decision_ratio[5] 	0.016610711394808
scalar abilene_cost_network.node[5].content_store 	cache_value[5] 	21.530812020595
scalar abilene_cost_network.node[5].content_store 	correction_factor[5] 	0.0027225701061802
scalar abilene_cost_network.node[5].content_store 	kappa[5] 	1
scalar abilene_cost_network.node[6].core_layer 	interests[6] 	369955
scalar abilene_cost_network.node[6].core_layer 	data[6] 	291899
scalar abilene_cost_network.node[6].content_store 	p_hit[6] 	0.20520603857226
scalar abilene_cost_network.node[6].content_store 	hits[6] 	75917
scalar abilene_cost_network.node[6].content_store 	misses[6] 	294038
scalar abilene_cost_network.node[6].content_store 	decision_yes[6] 	2641
scalar abilene_cost_network.node[6].content_store 	decision_no[6] 	289258
scalar abilene_cost_network.node[6].content_store 	decision_ratio[6] 	0.0090476500433369
scalar abilene_cost_network.node[6].content_store 	cache_value[6] 	5.8215841020552
scalar abilene_cost_network.node[6].content_store 	correction_factor[6] 	0.0027225701061802
scalar abilene_cost_network.node[6].content_store 	kappa[6] 	1
scalar abilene_cost_network.node[7].core_layer 	interests[7] 	379390
scalar abilene_cost_network.node[7].core_layer 	data[7] 	334707
scalar abilene_cost_network.node[7].content_store 	p_hit[7] 	0.10418303065447
scalar abilene_cost_network.node[7].content_store 	hits[7] 	39526
scalar abilene_cost_network.node[7].content_store 	misses[7] 	339864
scalar abilene_cost_network.node[7].content_store 	decision_yes[7] 	1981
scalar abilene_cost_network.node[7].content_store 	decision_no[7] 	332726
scalar abilene_cost_network.node[7].content_store 	decision_ratio[7] 	0.0059186094106188
scalar abilene_cost_network.node[7].content_store 	cache_value[7] 	1.9246671686812
scalar abilene_cost_network.node[7].content_store 	correction_factor[7] 	0.0027225701061802
scalar abilene_cost_network.node[7].content_store 	kappa[7] 	1
scalar abilene_cost_network.node[8].core_layer 	interests[8] 	329952
scalar abilene_cost_network.node[8].core_layer 	data[8] 	302966
scalar abilene_cost_network.node[8].content_store 	p_hit[8] 	0.06177565221608
scalar abilene_cost_network.node[8].content_store 	hits[8] 	20383
scalar abilene_cost_network.node[8].content_store 	misses[8] 	309569
scalar abilene_cost_network.node[8].content_store 	decision_yes[8] 	1321
scalar abilene_cost_network.node[8].content_store 	decision_no[8] 	301645
scalar abilene_cost_network.node[8].content_store 	decision_ratio[8] 	0.0043602252397959
scalar abilene_cost_network.node[8].content_store 	cache_value[8] 	1.5874852573271
scalar abilene_cost_network.node[8].content_store 	correction_factor[8] 	0.0027225701061802
scalar abilene_cost_network.node[8].content_store 	kappa[8] 	1
scalar abilene_cost_network.node[9].core_layer 	interests[9] 	209384
scalar abilene_cost_network.node[9].core_layer 	data[9] 	189702
scalar abilene_cost_network.node[9].content_store 	p_hit[9] 	0.070826806250716
scalar abilene_cost_network.node[9].content_store 	hits[9] 	14830
scalar abilene_cost_network.node[9].content_store 	misses[9] 	194554
scalar abilene_cost_network.node[9].content_store 	decision_yes[9] 	685
scalar abilene_cost_network.node[9].content_store 	decision_no[9] 	189017
scalar abilene_cost_network.node[9].content_store 	decision_ratio[9] 	0.0036109266112113
scalar abilene_cost_network.node[9].content_store 	cache_value[9] 	1.1573457405238
scalar abilene_cost_network.node[9].content_store 	correction_factor[9] 	0.0027225701061802
scalar abilene_cost_network.node[9].content_store 	kappa[9] 	1
scalar abilene_cost_network.node[10].core_layer 	interests[10] 	257862
scalar abilene_cost_network.node[10].core_layer 	data[10] 	219284
scalar abilene_cost_network.node[10].content_store 	p_hit[10] 	0.13285788522543
scalar abilene_cost_network.node[10].content_store 	hits[10] 	34259
scalar abilene_cost_network.node[10].content_store 	misses[10] 	223603
scalar abilene_cost_network.node[10].content_store 	decision_yes[10] 	771
scalar abilene_cost_network.node[10].content_store 	decision_no[10] 	218513
scalar abilene_cost_network.node[10].content_store 	decision_ratio[10] 	0.0035159883986064
scalar abilene_cost_network.node[10].content_store 	cache_value[10] 	0.89429340928579
scalar abilene_cost_network.node[10].content_store 	correction_factor[10] 	0.0027225701061802
scalar abilene_cost_network.node[10].content_store 	kappa[10] 	1
scalar abilene_cost_network.client[0] 	hdistance[0] 	3.4729741264033
scalar abilene_cost_network.client[0] 	downloads[0] 	175739
scalar abilene_cost_network.client[0] 	avg_time[0] 	0.017048047658
scalar abilene_cost_network.client[0] 	interests_sent[0] 	179746
scalar abilene_cost_network.client[1] 	hdistance[1] 	3.0503829441899
scalar abilene_cost_network.client[1] 	downloads[1] 	177441
scalar abilene_cost_network.client[1] 	avg_time[1] 	0.012805765699
scalar abilene_cost_network.client[1] 	interests_sent[1] 	180017
scalar abilene_cost_network.client[2] 	hdistance[2] 	2.6827754615173
scalar abilene_cost_network.client[2] 	downloads[2] 	177729
scalar abilene_cost_network.client[2] 	avg_time[2] 	0.01063406181
scalar abilene_cost_network.client[2] 	interests_sent[2] 	179812
scalar abilene_cost_network.client[3] 	hdistance[3] 	2.3242564145612
scalar abilene_cost_network.client[3] 	downloads[3] 	178695
scalar abilene_cost_network.client[3] 	avg_time[3] 	0.008745491254
scalar abilene_cost_network.client[3] 	interests_sent[3] 	180096
scalar abilene_cost_network.client[4] 	hdistance[4] 	2.0043760856167
scalar abilene_cost_network.client[4] 	downloads[4] 	178470
scalar abilene_cost_network.client[4] 	avg_time[4] 	0.008026366
scalar abilene_cost_network.client[4] 	interests_sent[4] 	179560
scalar abilene_cost_network.client[5] 	hdistance[5] 	2.2228695026842
scalar abilene_cost_network.client[5] 	downloads[5] 	179383
scalar abilene_cost_network.client[5] 	avg_time[5] 	0.009758446819
scalar abilene_cost_network.client[5] 	interests_sent[5] 	179969
scalar abilene_cost_network.client[6] 	hdistance[6] 	2.7688426769172
scalar abilene_cost_network.client[6] 	downloads[6] 	178982
scalar abilene_cost_network.client[6] 	avg_time[6] 	0.011420028468
scalar abilene_cost_network.client[6] 	interests_sent[6] 	179858
scalar abilene_cost_network.client[7] 	hdistance[7] 	2.8305939505453
scalar abilene_cost_network.client[7] 	downloads[7] 	178264
scalar abilene_cost_network.client[7] 	avg_time[7] 	0.010969073649
scalar abilene_cost_network.client[7] 	interests_sent[7] 	179698
scalar abilene_cost_network.client[8] 	hdistance[8] 	3.2548069858136
scalar abilene_cost_network.client[8] 	downloads[8] 	176930
scalar abilene_cost_network.client[8] 	avg_time[8] 	0.015319725929
scalar abilene_cost_network.client[8] 	interests_sent[8] 	179591
scalar abilene_cost_network.client[9] 	hdistance[9] 	3.6977209275825
scalar abilene_cost_network.client[9] 	downloads[9] 	175510
scalar abilene_cost_network.client[9] 	avg_time[9] 	0.022051011475
scalar abilene_cost_network.client[9] 	interests_sent[9] 	180136
scalar abilene_cost_network.client[10] 	hdistance[10] 	3.6860197405913
scalar abilene_cost_network.client[10] 	downloads[10] 	175476
scalar abilene_cost_network.client[10] 	avg_time[10] 	0.018749422492
scalar abilene_cost_network.client[10] 	interests_sent[10] 	179474
