version 2
run General-17-20150224-18:09:59-13614
attr D costaware0.01
attr F nrr
attr R lru
attr a 1
attr configname General
attr csize 1e3
attr ctlg 1e5
attr datetime 20150224-18:09:59
attr experiment General
attr inifile omnetpp.ini
attr iterationvars "$rep=18, $net=abilene_cost, $lambda=100, $a=1, $ctlg=1e5, $F=nrr, $ttl=10, $D=costaware0.01, $R=lru, $csize=1e3, $window=60, $variance=0.05, $mytime=1800, $kappa=1, $priceratiovalue=10, $pricebits=0"
attr iterationvars2 "$rep=18, $net=abilene_cost, $lambda=100, $a=1, $ctlg=1e5, $F=nrr, $ttl=10, $D=costaware0.01, $R=lru, $csize=1e3, $window=60, $variance=0.05, $mytime=1800, $kappa=1, $priceratiovalue=10, $pricebits=0, $repetition=0"
attr kappa 1
attr lambda 100
attr measurement "$rep=18, $net=abilene_cost, $lambda=100, $a=1, $ctlg=1e5, $F=nrr, $ttl=10, $D=costaware0.01, $R=lru, $csize=1e3, $window=60, $variance=0.05, $mytime=1800, $kappa=1, $priceratiovalue=10, $pricebits=0"
attr mytime 1800
attr net abilene_cost
attr network networks.${net=abilene_cost}_network
attr pricebits 0
attr priceratiovalue 10
attr processid 13614
attr rep 18
attr repetition 0
attr replication #0
attr resultdir results
attr runnumber 17
attr seedset 18
attr ttl 10
attr variance 0.05
attr window 60

scalar . 	a 	1
scalar . 	csize 	1e3
scalar . 	ctlg 	1e5
scalar . 	kappa 	1
scalar . 	lambda 	100
scalar . 	mytime 	1800
scalar . 	pricebits 	0
scalar . 	priceratiovalue 	10
scalar . 	rep 	18
scalar . 	ttl 	10
scalar . 	variance 	0.05
scalar . 	window 	60
scalar abilene_cost_network.content_distribution 	repo-0 	10
scalar abilene_cost_network.content_distribution 	repo-1 	7
scalar abilene_cost_network.content_distribution 	repo-2 	8
scalar abilene_cost_network.content_distribution 	client-0 	5
scalar abilene_cost_network.content_distribution 	client-1 	7
scalar abilene_cost_network.content_distribution 	client-2 	1
scalar abilene_cost_network.content_distribution 	client-3 	6
scalar abilene_cost_network.content_distribution 	client-4 	0
scalar abilene_cost_network.content_distribution 	client-5 	3
scalar abilene_cost_network.content_distribution 	client-6 	8
scalar abilene_cost_network.content_distribution 	client-7 	10
scalar abilene_cost_network.content_distribution 	client-8 	2
scalar abilene_cost_network.content_distribution 	client-9 	9
scalar abilene_cost_network.content_distribution 	client-10 	4
scalar abilene_cost_network.content_distribution 	repo-0_card 	33458
scalar abilene_cost_network.content_distribution 	repo-0_price 	10
scalar abilene_cost_network.content_distribution 	repo-1_card 	33216
scalar abilene_cost_network.content_distribution 	repo-1_price 	1
scalar abilene_cost_network.content_distribution 	repo-2_card 	33326
scalar abilene_cost_network.content_distribution 	repo-2_price 	0
scalar abilene_cost_network.statistics 	repo_popularity[0] 	0.2652111772155
scalar abilene_cost_network.statistics 	repo_popularity[1] 	0.32178423571392
scalar abilene_cost_network.statistics 	repo_popularity[2] 	0.41300458707059
scalar abilene_cost_network.statistics 	stabilization_time 	246.1
scalar abilene_cost_network.statistics 	p_hit 	0.10381953632032
scalar abilene_cost_network.statistics 	interests 	495769.36363636
scalar abilene_cost_network.statistics 	data 	315692.45454545
scalar abilene_cost_network.statistics 	hdistance 	2.5093415046208
scalar abilene_cost_network.statistics 	avg_time 	0.012031133491
scalar abilene_cost_network.statistics 	downloads 	1957640
scalar abilene_cost_network.statistics 	total_cost 	3053679
scalar abilene_cost_network.statistics 	total_replicas 	100000
scalar abilene_cost_network.statistics 	inner_hit 	0.30686285527472
scalar abilene_cost_network.statistics 	interests_sent 	1980846
scalar abilene_cost_network.node[0].core_layer 	interests[0] 	194382
scalar abilene_cost_network.node[0].core_layer 	data[0] 	169493
scalar abilene_cost_network.node[0].core_layer 	repo_int[0] 	1356913
scalar abilene_cost_network.node[0].content_store 	p_hit[0] 	0.10796781595004
scalar abilene_cost_network.node[0].content_store 	hits[0] 	20987
scalar abilene_cost_network.node[0].content_store 	misses[0] 	173395
scalar abilene_cost_network.node[0].content_store 	decision_yes[0] 	819
scalar abilene_cost_network.node[0].content_store 	decision_no[0] 	168674
scalar abilene_cost_network.node[0].content_store 	decision_ratio[0] 	0.0048320579610957
scalar abilene_cost_network.node[0].content_store 	cache_value[0] 	4.2431683142199
scalar abilene_cost_network.node[0].content_store 	correction_factor[0] 	0.0027225701061802
scalar abilene_cost_network.node[0].content_store 	kappa[0] 	1
scalar abilene_cost_network.node[1].core_layer 	interests[1] 	460013
scalar abilene_cost_network.node[1].core_layer 	data[1] 	422593
scalar abilene_cost_network.node[1].content_store 	p_hit[1] 	0.067539395625776
scalar abilene_cost_network.node[1].content_store 	hits[1] 	31069
scalar abilene_cost_network.node[1].content_store 	misses[1] 	428944
scalar abilene_cost_network.node[1].content_store 	decision_yes[1] 	3240
scalar abilene_cost_network.node[1].content_store 	decision_no[1] 	419353
scalar abilene_cost_network.node[1].content_store 	decision_ratio[1] 	0.0076669514166113
scalar abilene_cost_network.node[1].content_store 	cache_value[1] 	2.2732987634744
scalar abilene_cost_network.node[1].content_store 	correction_factor[1] 	0.0027225701061802
scalar abilene_cost_network.node[1].content_store 	kappa[1] 	1
scalar abilene_cost_network.node[2].core_layer 	interests[2] 	715759
scalar abilene_cost_network.node[2].core_layer 	data[2] 	667088
scalar abilene_cost_network.node[2].content_store 	p_hit[2] 	0.046510068333056
scalar abilene_cost_network.node[2].content_store 	hits[2] 	33290
scalar abilene_cost_network.node[2].content_store 	misses[2] 	682469
scalar abilene_cost_network.node[2].content_store 	decision_yes[2] 	2785
scalar abilene_cost_network.node[2].content_store 	decision_no[2] 	664302
scalar abilene_cost_network.node[2].content_store 	decision_ratio[2] 	0.0041748677458862
scalar abilene_cost_network.node[2].content_store 	cache_value[2] 	1.6555819046843
scalar abilene_cost_network.node[2].content_store 	correction_factor[2] 	0.0027225701061802
scalar abilene_cost_network.node[2].content_store 	kappa[2] 	1
scalar abilene_cost_network.node[3].core_layer 	interests[3] 	531254
scalar abilene_cost_network.node[3].core_layer 	data[3] 	485215
scalar abilene_cost_network.node[3].content_store 	p_hit[3] 	0.075863899377699
scalar abilene_cost_network.node[3].content_store 	hits[3] 	40303
scalar abilene_cost_network.node[3].content_store 	misses[3] 	490951
scalar abilene_cost_network.node[3].content_store 	decision_yes[3] 	2163
scalar abilene_cost_network.node[3].content_store 	decision_no[3] 	483050
scalar abilene_cost_network.node[3].content_store 	decision_ratio[3] 	0.0044578360431398
scalar abilene_cost_network.node[3].content_store 	cache_value[3] 	1.3587963734719
scalar abilene_cost_network.node[3].content_store 	correction_factor[3] 	0.0027225701061802
scalar abilene_cost_network.node[3].content_store 	kappa[3] 	1
scalar abilene_cost_network.node[4].core_layer 	interests[4] 	240572
scalar abilene_cost_network.node[4].core_layer 	data[4] 	213044
scalar abilene_cost_network.node[4].content_store 	p_hit[4] 	0.10498728031525
scalar abilene_cost_network.node[4].content_store 	hits[4] 	25257
scalar abilene_cost_network.node[4].content_store 	misses[4] 	215315
scalar abilene_cost_network.node[4].content_store 	decision_yes[4] 	1279
scalar abilene_cost_network.node[4].content_store 	decision_no[4] 	211765
scalar abilene_cost_network.node[4].content_store 	decision_ratio[4] 	0.0060034546854171
scalar abilene_cost_network.node[4].content_store 	cache_value[4] 	1.4493835729293
scalar abilene_cost_network.node[4].content_store 	correction_factor[4] 	0.0027225701061802
scalar abilene_cost_network.node[4].content_store 	kappa[4] 	1
scalar abilene_cost_network.node[5].core_layer 	interests[5] 	202401
scalar abilene_cost_network.node[5].core_layer 	data[5] 	173510
scalar abilene_cost_network.node[5].content_store 	p_hit[5] 	0.13052307053819
scalar abilene_cost_network.node[5].content_store 	hits[5] 	26418
scalar abilene_cost_network.node[5].content_store 	misses[5] 	175983
scalar abilene_cost_network.node[5].content_store 	decision_yes[5] 	655
scalar abilene_cost_network.node[5].content_store 	decision_no[5] 	172855
scalar abilene_cost_network.node[5].content_store 	decision_ratio[5] 	0.0037749985591609
scalar abilene_cost_network.node[5].content_store 	cache_value[5] 	1.4246226330725
scalar abilene_cost_network.node[5].content_store 	correction_factor[5] 	0.0027225701061802
scalar abilene_cost_network.node[5].content_store 	kappa[5] 	1
scalar abilene_cost_network.node[6].core_layer 	interests[6] 	313754
scalar abilene_cost_network.node[6].core_layer 	data[6] 	286490
scalar abilene_cost_network.node[6].content_store 	p_hit[6] 	0.068308292483921
scalar abilene_cost_network.node[6].content_store 	hits[6] 	21432
scalar abilene_cost_network.node[6].content_store 	misses[6] 	292322
scalar abilene_cost_network.node[6].content_store 	decision_yes[6] 	783
scalar abilene_cost_network.node[6].content_store 	decision_no[6] 	285707
scalar abilene_cost_network.node[6].content_store 	decision_ratio[6] 	0.0027330796886453
scalar abilene_cost_network.node[6].content_store 	cache_value[6] 	1.4479678290433
scalar abilene_cost_network.node[6].content_store 	correction_factor[6] 	0.0027225701061802
scalar abilene_cost_network.node[6].content_store 	kappa[6] 	1
scalar abilene_cost_network.node[7].core_layer 	interests[7] 	780966
scalar abilene_cost_network.node[7].core_layer 	repo_load[7] 	317469
scalar abilene_cost_network.node[7].core_layer 	data[7] 	306936
scalar abilene_cost_network.node[7].content_store 	p_hit[7] 	0.19368320771967
scalar abilene_cost_network.node[7].content_store 	hits[7] 	151260
scalar abilene_cost_network.node[7].content_store 	misses[7] 	629706
scalar abilene_cost_network.node[7].content_store 	decision_yes[7] 	2161
scalar abilene_cost_network.node[7].content_store 	decision_no[7] 	622244
scalar abilene_cost_network.node[7].content_store 	decision_ratio[7] 	0.0034608947718228
scalar abilene_cost_network.node[7].content_store 	cache_value[7] 	2.8069797771666
scalar abilene_cost_network.node[7].content_store 	correction_factor[7] 	0.0027225701061802
scalar abilene_cost_network.node[7].content_store 	kappa[7] 	1
scalar abilene_cost_network.node[8].core_layer 	interests[8] 	1091129
scalar abilene_cost_network.node[8].core_layer 	repo_load[8] 	765823
scalar abilene_cost_network.node[8].core_layer 	data[8] 	243648
scalar abilene_cost_network.node[8].content_store 	p_hit[8] 	0.074393586826122
scalar abilene_cost_network.node[8].content_store 	hits[8] 	81173
scalar abilene_cost_network.node[8].content_store 	misses[8] 	1009956
scalar abilene_cost_network.node[8].content_store 	decision_yes[8] 	2041
scalar abilene_cost_network.node[8].content_store 	decision_no[8] 	1007430
scalar abilene_cost_network.node[8].content_store 	decision_ratio[8] 	0.0020218510487176
scalar abilene_cost_network.node[8].content_store 	cache_value[8] 	3.0694188828792
scalar abilene_cost_network.node[8].content_store 	correction_factor[8] 	0.0027225701061802
scalar abilene_cost_network.node[8].content_store 	kappa[8] 	1
scalar abilene_cost_network.node[9].core_layer 	interests[9] 	407029
scalar abilene_cost_network.node[9].core_layer 	data[9] 	374210
scalar abilene_cost_network.node[9].content_store 	p_hit[9] 	0.063373862796017
scalar abilene_cost_network.node[9].content_store 	hits[9] 	25795
scalar abilene_cost_network.node[9].content_store 	misses[9] 	381234
scalar abilene_cost_network.node[9].content_store 	decision_yes[9] 	2771
scalar abilene_cost_network.node[9].content_store 	decision_no[9] 	371439
scalar abilene_cost_network.node[9].content_store 	decision_ratio[9] 	0.0074049330589776
scalar abilene_cost_network.node[9].content_store 	cache_value[9] 	2.7856606084303
scalar abilene_cost_network.node[9].content_store 	correction_factor[9] 	0.0027225701061802
scalar abilene_cost_network.node[9].content_store 	kappa[9] 	1
scalar abilene_cost_network.node[10].core_layer 	interests[10] 	516204
scalar abilene_cost_network.node[10].core_layer 	repo_load[10] 	273621
scalar abilene_cost_network.node[10].core_layer 	data[10] 	130390
scalar abilene_cost_network.node[10].content_store 	p_hit[10] 	0.21152877544537
scalar abilene_cost_network.node[10].content_store 	hits[10] 	109192
scalar abilene_cost_network.node[10].content_store 	misses[10] 	407012
scalar abilene_cost_network.node[10].content_store 	decision_yes[10] 	7352
scalar abilene_cost_network.node[10].content_store 	decision_no[10] 	396659
scalar abilene_cost_network.node[10].content_store 	decision_ratio[10] 	0.018197524324833
scalar abilene_cost_network.node[10].content_store 	cache_value[10] 	8.935261180575
scalar abilene_cost_network.node[10].content_store 	correction_factor[10] 	0.0027225701061802
scalar abilene_cost_network.node[10].content_store 	kappa[10] 	1
scalar abilene_cost_network.client[0] 	hdistance[0] 	3.2679264613808
scalar abilene_cost_network.client[0] 	downloads[0] 	175690
scalar abilene_cost_network.client[0] 	avg_time[0] 	0.018814638316
scalar abilene_cost_network.client[0] 	interests_sent[0] 	179592
scalar abilene_cost_network.client[1] 	hdistance[1] 	2.5866462850568
scalar abilene_cost_network.client[1] 	downloads[1] 	177284
scalar abilene_cost_network.client[1] 	avg_time[1] 	0.011991445321
scalar abilene_cost_network.client[1] 	interests_sent[1] 	179559
scalar abilene_cost_network.client[2] 	hdistance[2] 	2.1208692679701
scalar abilene_cost_network.client[2] 	downloads[2] 	178449
scalar abilene_cost_network.client[2] 	avg_time[2] 	0.009125569294
scalar abilene_cost_network.client[2] 	interests_sent[2] 	179748
scalar abilene_cost_network.client[3] 	hdistance[3] 	2.4814441702067
scalar abilene_cost_network.client[3] 	downloads[3] 	178677
scalar abilene_cost_network.client[3] 	avg_time[3] 	0.010478845374
scalar abilene_cost_network.client[3] 	interests_sent[3] 	180689
scalar abilene_cost_network.client[4] 	hdistance[4] 	3.3282936514633
scalar abilene_cost_network.client[4] 	downloads[4] 	177789
scalar abilene_cost_network.client[4] 	avg_time[4] 	0.011998139813
scalar abilene_cost_network.client[4] 	interests_sent[4] 	179952
scalar abilene_cost_network.client[5] 	hdistance[5] 	3.538447684922
scalar abilene_cost_network.client[5] 	downloads[5] 	177683
scalar abilene_cost_network.client[5] 	avg_time[5] 	0.014786171847
scalar abilene_cost_network.client[5] 	interests_sent[5] 	180155
scalar abilene_cost_network.client[6] 	hdistance[6] 	2.6948798035137
scalar abilene_cost_network.client[6] 	downloads[6] 	178333
scalar abilene_cost_network.client[6] 	avg_time[6] 	0.01348719806
scalar abilene_cost_network.client[6] 	interests_sent[6] 	180517
scalar abilene_cost_network.client[7] 	hdistance[7] 	1.7923894576832
scalar abilene_cost_network.client[7] 	downloads[7] 	178936
scalar abilene_cost_network.client[7] 	avg_time[7] 	0.008281359775
scalar abilene_cost_network.client[7] 	interests_sent[7] 	180173
scalar abilene_cost_network.client[8] 	hdistance[8] 	1.4449655095683
scalar abilene_cost_network.client[8] 	downloads[8] 	179760
scalar abilene_cost_network.client[8] 	avg_time[8] 	0.006138062427
scalar abilene_cost_network.client[8] 	interests_sent[8] 	179921
scalar abilene_cost_network.client[9] 	hdistance[9] 	1.9631306088482
scalar abilene_cost_network.client[9] 	downloads[9] 	177844
scalar abilene_cost_network.client[9] 	avg_time[9] 	0.013245812288
scalar abilene_cost_network.client[9] 	interests_sent[9] 	180361
scalar abilene_cost_network.client[10] 	hdistance[10] 	2.3837636502158
scalar abilene_cost_network.client[10] 	downloads[10] 	177195
scalar abilene_cost_network.client[10] 	avg_time[10] 	0.013995225887
scalar abilene_cost_network.client[10] 	interests_sent[10] 	180179
