version 2
run General-13-20150224-18:07:22-13604
attr D costaware0.01
attr F nrr
attr R lru
attr a 1
attr configname General
attr csize 1e3
attr ctlg 1e5
attr datetime 20150224-18:07:22
attr experiment General
attr inifile omnetpp.ini
attr iterationvars "$rep=14, $net=abilene_cost, $lambda=100, $a=1, $ctlg=1e5, $F=nrr, $ttl=10, $D=costaware0.01, $R=lru, $csize=1e3, $window=60, $variance=0.05, $mytime=1800, $kappa=1, $priceratiovalue=10, $pricebits=0"
attr iterationvars2 "$rep=14, $net=abilene_cost, $lambda=100, $a=1, $ctlg=1e5, $F=nrr, $ttl=10, $D=costaware0.01, $R=lru, $csize=1e3, $window=60, $variance=0.05, $mytime=1800, $kappa=1, $priceratiovalue=10, $pricebits=0, $repetition=0"
attr kappa 1
attr lambda 100
attr measurement "$rep=14, $net=abilene_cost, $lambda=100, $a=1, $ctlg=1e5, $F=nrr, $ttl=10, $D=costaware0.01, $R=lru, $csize=1e3, $window=60, $variance=0.05, $mytime=1800, $kappa=1, $priceratiovalue=10, $pricebits=0"
attr mytime 1800
attr net abilene_cost
attr network networks.${net=abilene_cost}_network
attr pricebits 0
attr priceratiovalue 10
attr processid 13604
attr rep 14
attr repetition 0
attr replication #0
attr resultdir results
attr runnumber 13
attr seedset 14
attr ttl 10
attr variance 0.05
attr window 60

scalar . 	a 	1
scalar . 	csize 	1e3
scalar . 	ctlg 	1e5
scalar . 	kappa 	1
scalar . 	lambda 	100
scalar . 	mytime 	1800
scalar . 	pricebits 	0
scalar . 	priceratiovalue 	10
scalar . 	rep 	14
scalar . 	ttl 	10
scalar . 	variance 	0.05
scalar . 	window 	60
scalar abilene_cost_network.content_distribution 	repo-0 	4
scalar abilene_cost_network.content_distribution 	repo-1 	0
scalar abilene_cost_network.content_distribution 	repo-2 	1
scalar abilene_cost_network.content_distribution 	client-0 	10
scalar abilene_cost_network.content_distribution 	client-1 	0
scalar abilene_cost_network.content_distribution 	client-2 	3
scalar abilene_cost_network.content_distribution 	client-3 	1
scalar abilene_cost_network.content_distribution 	client-4 	2
scalar abilene_cost_network.content_distribution 	client-5 	7
scalar abilene_cost_network.content_distribution 	client-6 	9
scalar abilene_cost_network.content_distribution 	client-7 	5
scalar abilene_cost_network.content_distribution 	client-8 	4
scalar abilene_cost_network.content_distribution 	client-9 	8
scalar abilene_cost_network.content_distribution 	client-10 	6
scalar abilene_cost_network.content_distribution 	repo-0_card 	32968
scalar abilene_cost_network.content_distribution 	repo-0_price 	10
scalar abilene_cost_network.content_distribution 	repo-1_card 	33548
scalar abilene_cost_network.content_distribution 	repo-1_price 	1
scalar abilene_cost_network.content_distribution 	repo-2_card 	33484
scalar abilene_cost_network.content_distribution 	repo-2_price 	0
scalar abilene_cost_network.statistics 	repo_popularity[0] 	0.26350767829553
scalar abilene_cost_network.statistics 	repo_popularity[1] 	0.36785907654356
scalar abilene_cost_network.statistics 	repo_popularity[2] 	0.36863324516092
scalar abilene_cost_network.statistics 	stabilization_time 	274.5
scalar abilene_cost_network.statistics 	p_hit 	0.11050976634838
scalar abilene_cost_network.statistics 	interests 	543680.45454545
scalar abilene_cost_network.statistics 	data 	363740.81818182
scalar abilene_cost_network.statistics 	hdistance 	2.7226470334448
scalar abilene_cost_network.statistics 	avg_time 	0.012271797967
scalar abilene_cost_network.statistics 	downloads 	1961530
scalar abilene_cost_network.statistics 	total_cost 	2932311
scalar abilene_cost_network.statistics 	total_replicas 	100000
scalar abilene_cost_network.statistics 	inner_hit 	0.3511422206135
scalar abilene_cost_network.statistics 	interests_sent 	1979338
scalar abilene_cost_network.node[0].core_layer 	interests[0] 	585237
scalar abilene_cost_network.node[0].core_layer 	repo_load[0] 	301151
scalar abilene_cost_network.node[0].core_layer 	data[0] 	112578
scalar abilene_cost_network.node[0].core_layer 	repo_int[0] 	1272754
scalar abilene_cost_network.node[0].content_store 	p_hit[0] 	0.29177581048362
scalar abilene_cost_network.node[0].content_store 	hits[0] 	170758
scalar abilene_cost_network.node[0].content_store 	misses[0] 	414479
scalar abilene_cost_network.node[0].content_store 	decision_yes[0] 	1440
scalar abilene_cost_network.node[0].content_store 	decision_no[0] 	412289
scalar abilene_cost_network.node[0].content_store 	decision_ratio[0] 	0.0034805391935301
scalar abilene_cost_network.node[0].content_store 	cache_value[0] 	2.3112997384285
scalar abilene_cost_network.node[0].content_store 	correction_factor[0] 	0.0027225701061802
scalar abilene_cost_network.node[0].content_store 	kappa[0] 	1
scalar abilene_cost_network.node[1].core_layer 	interests[1] 	1188465
scalar abilene_cost_network.node[1].core_layer 	repo_load[1] 	708487
scalar abilene_cost_network.node[1].core_layer 	data[1] 	428778
scalar abilene_cost_network.node[1].content_store 	p_hit[1] 	0.040574186029879
scalar abilene_cost_network.node[1].content_store 	hits[1] 	48221
scalar abilene_cost_network.node[1].content_store 	misses[1] 	1140244
scalar abilene_cost_network.node[1].content_store 	decision_yes[1] 	2413
scalar abilene_cost_network.node[1].content_store 	decision_no[1] 	1134852
scalar abilene_cost_network.node[1].content_store 	decision_ratio[1] 	0.0021217570223299
scalar abilene_cost_network.node[1].content_store 	cache_value[1] 	2.0016352262476
scalar abilene_cost_network.node[1].content_store 	correction_factor[1] 	0.0027225701061802
scalar abilene_cost_network.node[1].content_store 	kappa[1] 	1
scalar abilene_cost_network.node[2].core_layer 	interests[2] 	1061733
scalar abilene_cost_network.node[2].core_layer 	data[2] 	965930
scalar abilene_cost_network.node[2].content_store 	p_hit[2] 	0.080771719443589
scalar abilene_cost_network.node[2].content_store 	hits[2] 	85758
scalar abilene_cost_network.node[2].content_store 	misses[2] 	975975
scalar abilene_cost_network.node[2].content_store 	decision_yes[2] 	4193
scalar abilene_cost_network.node[2].content_store 	decision_no[2] 	961737
scalar abilene_cost_network.node[2].content_store 	decision_ratio[2] 	0.0043408942677006
scalar abilene_cost_network.node[2].content_store 	cache_value[2] 	2.9417719222616
scalar abilene_cost_network.node[2].content_store 	correction_factor[2] 	0.0027225701061802
scalar abilene_cost_network.node[2].content_store 	kappa[2] 	1
scalar abilene_cost_network.node[3].core_layer 	interests[3] 	961250
scalar abilene_cost_network.node[3].core_layer 	data[3] 	811068
scalar abilene_cost_network.node[3].content_store 	p_hit[3] 	0.14554278283485
scalar abilene_cost_network.node[3].content_store 	hits[3] 	139903
scalar abilene_cost_network.node[3].content_store 	misses[3] 	821347
scalar abilene_cost_network.node[3].content_store 	decision_yes[3] 	5224
scalar abilene_cost_network.node[3].content_store 	decision_no[3] 	805844
scalar abilene_cost_network.node[3].content_store 	decision_ratio[3] 	0.0064408902829356
scalar abilene_cost_network.node[3].content_store 	cache_value[3] 	3.1926919202687
scalar abilene_cost_network.node[3].content_store 	correction_factor[3] 	0.0027225701061802
scalar abilene_cost_network.node[3].content_store 	kappa[3] 	1
scalar abilene_cost_network.node[4].core_layer 	interests[4] 	623742
scalar abilene_cost_network.node[4].core_layer 	repo_load[4] 	263116
scalar abilene_cost_network.node[4].core_layer 	data[4] 	257327
scalar abilene_cost_network.node[4].content_store 	p_hit[4] 	0.16126539498703
scalar abilene_cost_network.node[4].content_store 	hits[4] 	100588
scalar abilene_cost_network.node[4].content_store 	misses[4] 	523154
scalar abilene_cost_network.node[4].content_store 	decision_yes[4] 	7351
scalar abilene_cost_network.node[4].content_store 	decision_no[4] 	513092
scalar abilene_cost_network.node[4].content_store 	decision_ratio[4] 	0.014124505469379
scalar abilene_cost_network.node[4].content_store 	cache_value[4] 	9.4616155689403
scalar abilene_cost_network.node[4].content_store 	correction_factor[4] 	0.0027225701061802
scalar abilene_cost_network.node[4].content_store 	kappa[4] 	1
scalar abilene_cost_network.node[5].core_layer 	interests[5] 	225269
scalar abilene_cost_network.node[5].core_layer 	data[5] 	206781
scalar abilene_cost_network.node[5].content_store 	p_hit[5] 	0.070897460369603
scalar abilene_cost_network.node[5].content_store 	hits[5] 	15971
scalar abilene_cost_network.node[5].content_store 	misses[5] 	209298
scalar abilene_cost_network.node[5].content_store 	decision_yes[5] 	1413
scalar abilene_cost_network.node[5].content_store 	decision_no[5] 	205368
scalar abilene_cost_network.node[5].content_store 	decision_ratio[5] 	0.0068333164072134
scalar abilene_cost_network.node[5].content_store 	cache_value[5] 	2.9752415108184
scalar abilene_cost_network.node[5].content_store 	correction_factor[5] 	0.0027225701061802
scalar abilene_cost_network.node[5].content_store 	kappa[5] 	1
scalar abilene_cost_network.node[6].core_layer 	interests[6] 	209413
scalar abilene_cost_network.node[6].core_layer 	data[6] 	181022
scalar abilene_cost_network.node[6].content_store 	p_hit[6] 	0.123316126506
scalar abilene_cost_network.node[6].content_store 	hits[6] 	25824
scalar abilene_cost_network.node[6].content_store 	misses[6] 	183589
scalar abilene_cost_network.node[6].content_store 	decision_yes[6] 	689
scalar abilene_cost_network.node[6].content_store 	decision_no[6] 	180333
scalar abilene_cost_network.node[6].content_store 	decision_ratio[6] 	0.0038061672061959
scalar abilene_cost_network.node[6].content_store 	cache_value[6] 	2.6001826619991
scalar abilene_cost_network.node[6].content_store 	correction_factor[6] 	0.0027225701061802
scalar abilene_cost_network.node[6].content_store 	kappa[6] 	1
scalar abilene_cost_network.node[7].core_layer 	interests[7] 	349903
scalar abilene_cost_network.node[7].core_layer 	data[7] 	320374
scalar abilene_cost_network.node[7].content_store 	p_hit[7] 	0.07209140819027
scalar abilene_cost_network.node[7].content_store 	hits[7] 	25225
scalar abilene_cost_network.node[7].content_store 	misses[7] 	324678
scalar abilene_cost_network.node[7].content_store 	decision_yes[7] 	709
scalar abilene_cost_network.node[7].content_store 	decision_no[7] 	319665
scalar abilene_cost_network.node[7].content_store 	decision_ratio[7] 	0.00221303851124
scalar abilene_cost_network.node[7].content_store 	cache_value[7] 	1.1805935514176
scalar abilene_cost_network.node[7].content_store 	correction_factor[7] 	0.0027225701061802
scalar abilene_cost_network.node[7].content_store 	kappa[7] 	1
scalar abilene_cost_network.node[8].core_layer 	interests[8] 	253964
scalar abilene_cost_network.node[8].core_layer 	data[8] 	231402
scalar abilene_cost_network.node[8].content_store 	p_hit[8] 	0.078121308531918
scalar abilene_cost_network.node[8].content_store 	hits[8] 	19840
scalar abilene_cost_network.node[8].content_store 	misses[8] 	234124
scalar abilene_cost_network.node[8].content_store 	decision_yes[8] 	1278
scalar abilene_cost_network.node[8].content_store 	decision_no[8] 	230124
scalar abilene_cost_network.node[8].content_store 	decision_ratio[8] 	0.0055228563279488
scalar abilene_cost_network.node[8].content_store 	cache_value[8] 	1.3831034973428
scalar abilene_cost_network.node[8].content_store 	correction_factor[8] 	0.0027225701061802
scalar abilene_cost_network.node[8].content_store 	kappa[8] 	1
scalar abilene_cost_network.node[9].core_layer 	interests[9] 	199417
scalar abilene_cost_network.node[9].core_layer 	data[9] 	185741
scalar abilene_cost_network.node[9].content_store 	p_hit[9] 	0.056178761088573
scalar abilene_cost_network.node[9].content_store 	hits[9] 	11203
scalar abilene_cost_network.node[9].content_store 	misses[9] 	188214
scalar abilene_cost_network.node[9].content_store 	decision_yes[9] 	676
scalar abilene_cost_network.node[9].content_store 	decision_no[9] 	185065
scalar abilene_cost_network.node[9].content_store 	decision_ratio[9] 	0.003639476475307
scalar abilene_cost_network.node[9].content_store 	cache_value[9] 	0.92920632490942
scalar abilene_cost_network.node[9].content_store 	correction_factor[9] 	0.0027225701061802
scalar abilene_cost_network.node[9].content_store 	kappa[9] 	1
scalar abilene_cost_network.node[10].core_layer 	interests[10] 	322092
scalar abilene_cost_network.node[10].core_layer 	data[10] 	300148
scalar abilene_cost_network.node[10].content_store 	p_hit[10] 	0.054676924605392
scalar abilene_cost_network.node[10].content_store 	hits[10] 	17611
scalar abilene_cost_network.node[10].content_store 	misses[10] 	304481
scalar abilene_cost_network.node[10].content_store 	decision_yes[10] 	751
scalar abilene_cost_network.node[10].content_store 	decision_no[10] 	299397
scalar abilene_cost_network.node[10].content_store 	decision_ratio[10] 	0.0025020989645108
scalar abilene_cost_network.node[10].content_store 	cache_value[10] 	1.1848955259682
scalar abilene_cost_network.node[10].content_store 	correction_factor[10] 	0.0027225701061802
scalar abilene_cost_network.node[10].content_store 	kappa[10] 	1
scalar abilene_cost_network.client[0] 	hdistance[0] 	1.9517808096573
scalar abilene_cost_network.client[0] 	downloads[0] 	178767
scalar abilene_cost_network.client[0] 	avg_time[0] 	0.009702215482
scalar abilene_cost_network.client[0] 	interests_sent[0] 	179517
scalar abilene_cost_network.client[1] 	hdistance[1] 	1.6680142221227
scalar abilene_cost_network.client[1] 	downloads[1] 	178595
scalar abilene_cost_network.client[1] 	avg_time[1] 	0.006698807857
scalar abilene_cost_network.client[1] 	interests_sent[1] 	180144
scalar abilene_cost_network.client[2] 	hdistance[2] 	2.0027792408638
scalar abilene_cost_network.client[2] 	downloads[2] 	178466
scalar abilene_cost_network.client[2] 	avg_time[2] 	0.008076626851
scalar abilene_cost_network.client[2] 	interests_sent[2] 	179488
scalar abilene_cost_network.client[3] 	hdistance[3] 	2.3531269000987
scalar abilene_cost_network.client[3] 	downloads[3] 	179267
scalar abilene_cost_network.client[3] 	avg_time[3] 	0.009429910553
scalar abilene_cost_network.client[3] 	interests_sent[3] 	179921
scalar abilene_cost_network.client[4] 	hdistance[4] 	2.8554899738107
scalar abilene_cost_network.client[4] 	downloads[4] 	179081
scalar abilene_cost_network.client[4] 	avg_time[4] 	0.009973680282
scalar abilene_cost_network.client[4] 	interests_sent[4] 	179998
scalar abilene_cost_network.client[5] 	hdistance[5] 	3.7862973053774
scalar abilene_cost_network.client[5] 	downloads[5] 	177279
scalar abilene_cost_network.client[5] 	avg_time[5] 	0.017115560701
scalar abilene_cost_network.client[5] 	interests_sent[5] 	179652
scalar abilene_cost_network.client[6] 	hdistance[6] 	3.9717525575844
scalar abilene_cost_network.client[6] 	downloads[6] 	177609
scalar abilene_cost_network.client[6] 	avg_time[6] 	0.018365282214
scalar abilene_cost_network.client[6] 	interests_sent[6] 	180171
scalar abilene_cost_network.client[7] 	hdistance[7] 	3.2456728366991
scalar abilene_cost_network.client[7] 	downloads[7] 	178119
scalar abilene_cost_network.client[7] 	avg_time[7] 	0.013752670868
scalar abilene_cost_network.client[7] 	interests_sent[7] 	179635
scalar abilene_cost_network.client[8] 	hdistance[8] 	2.8931114793748
scalar abilene_cost_network.client[8] 	downloads[8] 	178616
scalar abilene_cost_network.client[8] 	avg_time[8] 	0.014393795851
scalar abilene_cost_network.client[8] 	interests_sent[8] 	180952
scalar abilene_cost_network.client[9] 	hdistance[9] 	2.9620628267532
scalar abilene_cost_network.client[9] 	downloads[9] 	177504
scalar abilene_cost_network.client[9] 	avg_time[9] 	0.015683593336
scalar abilene_cost_network.client[9] 	interests_sent[9] 	179969
scalar abilene_cost_network.client[10] 	hdistance[10] 	2.259029215551
scalar abilene_cost_network.client[10] 	downloads[10] 	178227
scalar abilene_cost_network.client[10] 	avg_time[10] 	0.011797633644
scalar abilene_cost_network.client[10] 	interests_sent[10] 	179891
