version 2
run General-9-20150224-18:07:06-13600
attr D costaware0.01
attr F nrr
attr R lru
attr a 1
attr configname General
attr csize 1e3
attr ctlg 1e5
attr datetime 20150224-18:07:06
attr experiment General
attr inifile omnetpp.ini
attr iterationvars "$rep=10, $net=abilene_cost, $lambda=100, $a=1, $ctlg=1e5, $F=nrr, $ttl=10, $D=costaware0.01, $R=lru, $csize=1e3, $window=60, $variance=0.05, $mytime=1800, $kappa=1, $priceratiovalue=10, $pricebits=0"
attr iterationvars2 "$rep=10, $net=abilene_cost, $lambda=100, $a=1, $ctlg=1e5, $F=nrr, $ttl=10, $D=costaware0.01, $R=lru, $csize=1e3, $window=60, $variance=0.05, $mytime=1800, $kappa=1, $priceratiovalue=10, $pricebits=0, $repetition=0"
attr kappa 1
attr lambda 100
attr measurement "$rep=10, $net=abilene_cost, $lambda=100, $a=1, $ctlg=1e5, $F=nrr, $ttl=10, $D=costaware0.01, $R=lru, $csize=1e3, $window=60, $variance=0.05, $mytime=1800, $kappa=1, $priceratiovalue=10, $pricebits=0"
attr mytime 1800
attr net abilene_cost
attr network networks.${net=abilene_cost}_network
attr pricebits 0
attr priceratiovalue 10
attr processid 13600
attr rep 10
attr repetition 0
attr replication #0
attr resultdir results
attr runnumber 9
attr seedset 10
attr ttl 10
attr variance 0.05
attr window 60

scalar . 	a 	1
scalar . 	csize 	1e3
scalar . 	ctlg 	1e5
scalar . 	kappa 	1
scalar . 	lambda 	100
scalar . 	mytime 	1800
scalar . 	pricebits 	0
scalar . 	priceratiovalue 	10
scalar . 	rep 	10
scalar . 	ttl 	10
scalar . 	variance 	0.05
scalar . 	window 	60
scalar abilene_cost_network.content_distribution 	repo-0 	2
scalar abilene_cost_network.content_distribution 	repo-1 	7
scalar abilene_cost_network.content_distribution 	repo-2 	0
scalar abilene_cost_network.content_distribution 	client-0 	7
scalar abilene_cost_network.content_distribution 	client-1 	10
scalar abilene_cost_network.content_distribution 	client-2 	6
scalar abilene_cost_network.content_distribution 	client-3 	2
scalar abilene_cost_network.content_distribution 	client-4 	9
scalar abilene_cost_network.content_distribution 	client-5 	1
scalar abilene_cost_network.content_distribution 	client-6 	4
scalar abilene_cost_network.content_distribution 	client-7 	3
scalar abilene_cost_network.content_distribution 	client-8 	8
scalar abilene_cost_network.content_distribution 	client-9 	0
scalar abilene_cost_network.content_distribution 	client-10 	5
scalar abilene_cost_network.content_distribution 	repo-0_card 	33051
scalar abilene_cost_network.content_distribution 	repo-0_price 	1
scalar abilene_cost_network.content_distribution 	repo-1_card 	33540
scalar abilene_cost_network.content_distribution 	repo-1_price 	0
scalar abilene_cost_network.content_distribution 	repo-2_card 	33409
scalar abilene_cost_network.content_distribution 	repo-2_price 	10
scalar abilene_cost_network.statistics 	repo_popularity[0] 	0.31604282411607
scalar abilene_cost_network.statistics 	repo_popularity[1] 	0.32421277053647
scalar abilene_cost_network.statistics 	repo_popularity[2] 	0.35974440534748
scalar abilene_cost_network.statistics 	stabilization_time 	302.7
scalar abilene_cost_network.statistics 	p_hit 	0.12996831630407
scalar abilene_cost_network.statistics 	interests 	502237.09090909
scalar abilene_cost_network.statistics 	data 	322384.72727273
scalar abilene_cost_network.statistics 	hdistance 	2.4513494600295
scalar abilene_cost_network.statistics 	avg_time 	0.011482619287
scalar abilene_cost_network.statistics 	downloads 	1961440
scalar abilene_cost_network.statistics 	total_cost 	2958209
scalar abilene_cost_network.statistics 	total_replicas 	100000
scalar abilene_cost_network.statistics 	inner_hit 	0.37695264703483
scalar abilene_cost_network.statistics 	interests_sent 	1978378
scalar abilene_cost_network.node[0].core_layer 	interests[0] 	506602
scalar abilene_cost_network.node[0].core_layer 	repo_load[0] 	263363
scalar abilene_cost_network.node[0].core_layer 	data[0] 	113195
scalar abilene_cost_network.node[0].core_layer 	repo_int[0] 	1222070
scalar abilene_cost_network.node[0].content_store 	p_hit[0] 	0.25509571616377
scalar abilene_cost_network.node[0].content_store 	hits[0] 	129232
scalar abilene_cost_network.node[0].content_store 	misses[0] 	377370
scalar abilene_cost_network.node[0].content_store 	decision_yes[0] 	7271
scalar abilene_cost_network.node[0].content_store 	decision_no[0] 	369287
scalar abilene_cost_network.node[0].content_store 	decision_ratio[0] 	0.019309110415925
scalar abilene_cost_network.node[0].content_store 	cache_value[0] 	20.425801954708
scalar abilene_cost_network.node[0].content_store 	correction_factor[0] 	0.0027225701061802
scalar abilene_cost_network.node[0].content_store 	kappa[0] 	1
scalar abilene_cost_network.node[1].core_layer 	interests[1] 	606468
scalar abilene_cost_network.node[1].core_layer 	data[1] 	502918
scalar abilene_cost_network.node[1].content_store 	p_hit[1] 	0.16550090029482
scalar abilene_cost_network.node[1].content_store 	hits[1] 	100371
scalar abilene_cost_network.node[1].content_store 	misses[1] 	506097
scalar abilene_cost_network.node[1].content_store 	decision_yes[1] 	5235
scalar abilene_cost_network.node[1].content_store 	decision_no[1] 	497683
scalar abilene_cost_network.node[1].content_store 	decision_ratio[1] 	0.010409251607618
scalar abilene_cost_network.node[1].content_store 	cache_value[1] 	7.6800479357073
scalar abilene_cost_network.node[1].content_store 	correction_factor[1] 	0.0027225701061802
scalar abilene_cost_network.node[1].content_store 	kappa[1] 	1
scalar abilene_cost_network.node[2].core_layer 	interests[2] 	989647
scalar abilene_cost_network.node[2].core_layer 	repo_load[2] 	324579
scalar abilene_cost_network.node[2].core_layer 	data[2] 	467479
scalar abilene_cost_network.node[2].content_store 	p_hit[2] 	0.19317291923282
scalar abilene_cost_network.node[2].content_store 	hits[2] 	191173
scalar abilene_cost_network.node[2].content_store 	misses[2] 	798474
scalar abilene_cost_network.node[2].content_store 	decision_yes[2] 	5173
scalar abilene_cost_network.node[2].content_store 	decision_no[2] 	786885
scalar abilene_cost_network.node[2].content_store 	decision_ratio[2] 	0.0065310873698643
scalar abilene_cost_network.node[2].content_store 	cache_value[2] 	2.3430936857889
scalar abilene_cost_network.node[2].content_store 	correction_factor[2] 	0.0027225701061802
scalar abilene_cost_network.node[2].content_store 	kappa[2] 	1
scalar abilene_cost_network.node[3].core_layer 	interests[3] 	852071
scalar abilene_cost_network.node[3].core_layer 	data[3] 	712152
scalar abilene_cost_network.node[3].content_store 	p_hit[3] 	0.1556372649697
scalar abilene_cost_network.node[3].content_store 	hits[3] 	132614
scalar abilene_cost_network.node[3].content_store 	misses[3] 	719457
scalar abilene_cost_network.node[3].content_store 	decision_yes[3] 	3377
scalar abilene_cost_network.node[3].content_store 	decision_no[3] 	708775
scalar abilene_cost_network.node[3].content_store 	decision_ratio[3] 	0.0047419651984408
scalar abilene_cost_network.node[3].content_store 	cache_value[3] 	11.554996357446
scalar abilene_cost_network.node[3].content_store 	correction_factor[3] 	0.0027225701061802
scalar abilene_cost_network.node[3].content_store 	kappa[3] 	1
scalar abilene_cost_network.node[4].core_layer 	interests[4] 	305694
scalar abilene_cost_network.node[4].core_layer 	data[4] 	273799
scalar abilene_cost_network.node[4].content_store 	p_hit[4] 	0.097342440479695
scalar abilene_cost_network.node[4].content_store 	hits[4] 	29757
scalar abilene_cost_network.node[4].content_store 	misses[4] 	275937
scalar abilene_cost_network.node[4].content_store 	decision_yes[4] 	1358
scalar abilene_cost_network.node[4].content_store 	decision_no[4] 	272441
scalar abilene_cost_network.node[4].content_store 	decision_ratio[4] 	0.004959842804393
scalar abilene_cost_network.node[4].content_store 	cache_value[4] 	1.4633059050247
scalar abilene_cost_network.node[4].content_store 	correction_factor[4] 	0.0027225701061802
scalar abilene_cost_network.node[4].content_store 	kappa[4] 	1
scalar abilene_cost_network.node[5].core_layer 	interests[5] 	197814
scalar abilene_cost_network.node[5].core_layer 	data[5] 	183293
scalar abilene_cost_network.node[5].content_store 	p_hit[5] 	0.062149291758925
scalar abilene_cost_network.node[5].content_store 	hits[5] 	12294
scalar abilene_cost_network.node[5].content_store 	misses[5] 	185520
scalar abilene_cost_network.node[5].content_store 	decision_yes[5] 	692
scalar abilene_cost_network.node[5].content_store 	decision_no[5] 	182601
scalar abilene_cost_network.node[5].content_store 	decision_ratio[5] 	0.0037753760372737
scalar abilene_cost_network.node[5].content_store 	cache_value[5] 	1.130317085937
scalar abilene_cost_network.node[5].content_store 	correction_factor[5] 	0.0027225701061802
scalar abilene_cost_network.node[5].content_store 	kappa[5] 	1
scalar abilene_cost_network.node[6].core_layer 	interests[6] 	260716
scalar abilene_cost_network.node[6].core_layer 	data[6] 	243545
scalar abilene_cost_network.node[6].content_store 	p_hit[6] 	0.056072508016386
scalar abilene_cost_network.node[6].content_store 	hits[6] 	14619
scalar abilene_cost_network.node[6].content_store 	misses[6] 	246097
scalar abilene_cost_network.node[6].content_store 	decision_yes[6] 	689
scalar abilene_cost_network.node[6].content_store 	decision_no[6] 	242856
scalar abilene_cost_network.node[6].content_store 	decision_ratio[6] 	0.0028290459668644
scalar abilene_cost_network.node[6].content_store 	cache_value[6] 	1.0945833776071
scalar abilene_cost_network.node[6].content_store 	correction_factor[6] 	0.0027225701061802
scalar abilene_cost_network.node[6].content_store 	kappa[6] 	1
scalar abilene_cost_network.node[7].core_layer 	interests[7] 	891713
scalar abilene_cost_network.node[7].core_layer 	repo_load[7] 	634128
scalar abilene_cost_network.node[7].core_layer 	data[7] 	231929
scalar abilene_cost_network.node[7].content_store 	p_hit[7] 	0.024968796013964
scalar abilene_cost_network.node[7].content_store 	hits[7] 	22265
scalar abilene_cost_network.node[7].content_store 	misses[7] 	869448
scalar abilene_cost_network.node[7].content_store 	decision_yes[7] 	1495
scalar abilene_cost_network.node[7].content_store 	decision_no[7] 	864562
scalar abilene_cost_network.node[7].content_store 	decision_ratio[7] 	0.001726214325385
scalar abilene_cost_network.node[7].content_store 	cache_value[7] 	1.6739340126077
scalar abilene_cost_network.node[7].content_store 	correction_factor[7] 	0.0027225701061802
scalar abilene_cost_network.node[7].content_store 	kappa[7] 	1
scalar abilene_cost_network.node[8].core_layer 	interests[8] 	390173
scalar abilene_cost_network.node[8].core_layer 	data[8] 	345709
scalar abilene_cost_network.node[8].content_store 	p_hit[8] 	0.10669369741115
scalar abilene_cost_network.node[8].content_store 	hits[8] 	41629
scalar abilene_cost_network.node[8].content_store 	misses[8] 	348544
scalar abilene_cost_network.node[8].content_store 	decision_yes[8] 	730
scalar abilene_cost_network.node[8].content_store 	decision_no[8] 	344979
scalar abilene_cost_network.node[8].content_store 	decision_ratio[8] 	0.002111602532766
scalar abilene_cost_network.node[8].content_store 	cache_value[8] 	1.3689565050353
scalar abilene_cost_network.node[8].content_store 	correction_factor[8] 	0.0027225701061802
scalar abilene_cost_network.node[8].content_store 	kappa[8] 	1
scalar abilene_cost_network.node[9].core_layer 	interests[9] 	265372
scalar abilene_cost_network.node[9].core_layer 	data[9] 	241814
scalar abilene_cost_network.node[9].content_store 	p_hit[9] 	0.07608564581041
scalar abilene_cost_network.node[9].content_store 	hits[9] 	20191
scalar abilene_cost_network.node[9].content_store 	misses[9] 	245181
scalar abilene_cost_network.node[9].content_store 	decision_yes[9] 	743
scalar abilene_cost_network.node[9].content_store 	decision_no[9] 	241071
scalar abilene_cost_network.node[9].content_store 	decision_ratio[9] 	0.0030726095263302
scalar abilene_cost_network.node[9].content_store 	cache_value[9] 	1.3254515184953
scalar abilene_cost_network.node[9].content_store 	correction_factor[9] 	0.0027225701061802
scalar abilene_cost_network.node[9].content_store 	kappa[9] 	1
scalar abilene_cost_network.node[10].core_layer 	interests[10] 	258338
scalar abilene_cost_network.node[10].core_layer 	data[10] 	230399
scalar abilene_cost_network.node[10].content_store 	p_hit[10] 	0.092433168949206
scalar abilene_cost_network.node[10].content_store 	hits[10] 	23879
scalar abilene_cost_network.node[10].content_store 	misses[10] 	234459
scalar abilene_cost_network.node[10].content_store 	decision_yes[10] 	1380
scalar abilene_cost_network.node[10].content_store 	decision_no[10] 	229019
scalar abilene_cost_network.node[10].content_store 	decision_ratio[10] 	0.0059896093299016
scalar abilene_cost_network.node[10].content_store 	cache_value[10] 	2.0542412144539
scalar abilene_cost_network.node[10].content_store 	correction_factor[10] 	0.0027225701061802
scalar abilene_cost_network.node[10].content_store 	kappa[10] 	1
scalar abilene_cost_network.client[0] 	hdistance[0] 	2.5686156184345
scalar abilene_cost_network.client[0] 	downloads[0] 	178968
scalar abilene_cost_network.client[0] 	avg_time[0] 	0.013511590556
scalar abilene_cost_network.client[0] 	interests_sent[0] 	179780
scalar abilene_cost_network.client[1] 	hdistance[1] 	2.2251980680659
scalar abilene_cost_network.client[1] 	downloads[1] 	178474
scalar abilene_cost_network.client[1] 	avg_time[1] 	0.009955995381
scalar abilene_cost_network.client[1] 	interests_sent[1] 	180185
scalar abilene_cost_network.client[2] 	hdistance[2] 	1.8402388305998
scalar abilene_cost_network.client[2] 	downloads[2] 	179374
scalar abilene_cost_network.client[2] 	avg_time[2] 	0.006980382251
scalar abilene_cost_network.client[2] 	interests_sent[2] 	180357
scalar abilene_cost_network.client[3] 	hdistance[3] 	1.8969401394862
scalar abilene_cost_network.client[3] 	downloads[3] 	178799
scalar abilene_cost_network.client[3] 	avg_time[3] 	0.007266238982
scalar abilene_cost_network.client[3] 	interests_sent[3] 	179333
scalar abilene_cost_network.client[4] 	hdistance[4] 	2.7876861311011
scalar abilene_cost_network.client[4] 	downloads[4] 	178839
scalar abilene_cost_network.client[4] 	avg_time[4] 	0.008779335533
scalar abilene_cost_network.client[4] 	interests_sent[4] 	179681
scalar abilene_cost_network.client[5] 	hdistance[5] 	3.3792139107686
scalar abilene_cost_network.client[5] 	downloads[5] 	177359
scalar abilene_cost_network.client[5] 	avg_time[5] 	0.013915726577
scalar abilene_cost_network.client[5] 	interests_sent[5] 	179509
scalar abilene_cost_network.client[6] 	hdistance[6] 	3.0288677507749
scalar abilene_cost_network.client[6] 	downloads[6] 	178088
scalar abilene_cost_network.client[6] 	avg_time[6] 	0.013767489812
scalar abilene_cost_network.client[6] 	interests_sent[6] 	180344
scalar abilene_cost_network.client[7] 	hdistance[7] 	2.1149499244671
scalar abilene_cost_network.client[7] 	downloads[7] 	178730
scalar abilene_cost_network.client[7] 	avg_time[7] 	0.008505428321
scalar abilene_cost_network.client[7] 	interests_sent[7] 	179980
scalar abilene_cost_network.client[8] 	hdistance[8] 	2.0446762115654
scalar abilene_cost_network.client[8] 	downloads[8] 	177477
scalar abilene_cost_network.client[8] 	avg_time[8] 	0.010412797648
scalar abilene_cost_network.client[8] 	interests_sent[8] 	179438
scalar abilene_cost_network.client[9] 	hdistance[9] 	2.527166842203
scalar abilene_cost_network.client[9] 	downloads[9] 	177551
scalar abilene_cost_network.client[9] 	avg_time[9] 	0.017512464446
scalar abilene_cost_network.client[9] 	interests_sent[9] 	179976
scalar abilene_cost_network.client[10] 	hdistance[10] 	2.5512906328573
scalar abilene_cost_network.client[10] 	downloads[10] 	177781
scalar abilene_cost_network.client[10] 	avg_time[10] 	0.015701362657
scalar abilene_cost_network.client[10] 	interests_sent[10] 	179795
