version 2
run General-0-20150224-18:04:14-13585
attr D costaware0.01
attr F nrr
attr R lru
attr a 1
attr configname General
attr csize 1e3
attr ctlg 1e5
attr datetime 20150224-18:04:14
attr experiment General
attr inifile omnetpp.ini
attr iterationvars "$rep=1, $net=abilene_cost, $lambda=100, $a=1, $ctlg=1e5, $F=nrr, $ttl=10, $D=costaware0.01, $R=lru, $csize=1e3, $window=60, $variance=0.05, $mytime=1800, $kappa=1, $priceratiovalue=10, $pricebits=0"
attr iterationvars2 "$rep=1, $net=abilene_cost, $lambda=100, $a=1, $ctlg=1e5, $F=nrr, $ttl=10, $D=costaware0.01, $R=lru, $csize=1e3, $window=60, $variance=0.05, $mytime=1800, $kappa=1, $priceratiovalue=10, $pricebits=0, $repetition=0"
attr kappa 1
attr lambda 100
attr measurement "$rep=1, $net=abilene_cost, $lambda=100, $a=1, $ctlg=1e5, $F=nrr, $ttl=10, $D=costaware0.01, $R=lru, $csize=1e3, $window=60, $variance=0.05, $mytime=1800, $kappa=1, $priceratiovalue=10, $pricebits=0"
attr mytime 1800
attr net abilene_cost
attr network networks.${net=abilene_cost}_network
attr pricebits 0
attr priceratiovalue 10
attr processid 13585
attr rep 1
attr repetition 0
attr replication #0
attr resultdir results
attr runnumber 0
attr seedset 1
attr ttl 10
attr variance 0.05
attr window 60

scalar . 	a 	1
scalar . 	csize 	1e3
scalar . 	ctlg 	1e5
scalar . 	kappa 	1
scalar . 	lambda 	100
scalar . 	mytime 	1800
scalar . 	pricebits 	0
scalar . 	priceratiovalue 	10
scalar . 	rep 	1
scalar . 	ttl 	10
scalar . 	variance 	0.05
scalar . 	window 	60
scalar abilene_cost_network.content_distribution 	repo-0 	10
scalar abilene_cost_network.content_distribution 	repo-1 	7
scalar abilene_cost_network.content_distribution 	repo-2 	5
scalar abilene_cost_network.content_distribution 	client-0 	8
scalar abilene_cost_network.content_distribution 	client-1 	7
scalar abilene_cost_network.content_distribution 	client-2 	2
scalar abilene_cost_network.content_distribution 	client-3 	9
scalar abilene_cost_network.content_distribution 	client-4 	10
scalar abilene_cost_network.content_distribution 	client-5 	4
scalar abilene_cost_network.content_distribution 	client-6 	6
scalar abilene_cost_network.content_distribution 	client-7 	3
scalar abilene_cost_network.content_distribution 	client-8 	0
scalar abilene_cost_network.content_distribution 	client-9 	5
scalar abilene_cost_network.content_distribution 	client-10 	1
scalar abilene_cost_network.content_distribution 	repo-0_card 	33398
scalar abilene_cost_network.content_distribution 	repo-0_price 	0
scalar abilene_cost_network.content_distribution 	repo-1_card 	33041
scalar abilene_cost_network.content_distribution 	repo-1_price 	10
scalar abilene_cost_network.content_distribution 	repo-2_card 	33561
scalar abilene_cost_network.content_distribution 	repo-2_price 	1
scalar abilene_cost_network.statistics 	repo_popularity[0] 	0.32535002204279
scalar abilene_cost_network.statistics 	repo_popularity[1] 	0.27656706183244
scalar abilene_cost_network.statistics 	repo_popularity[2] 	0.39808291612479
scalar abilene_cost_network.statistics 	stabilization_time 	268.2
scalar abilene_cost_network.statistics 	p_hit 	0.12380761925177
scalar abilene_cost_network.statistics 	interests 	530966
scalar abilene_cost_network.statistics 	data 	350963.27272727
scalar abilene_cost_network.statistics 	hdistance 	2.6195169640227
scalar abilene_cost_network.statistics 	avg_time 	0.012797598309
scalar abilene_cost_network.statistics 	downloads 	1959702
scalar abilene_cost_network.statistics 	total_cost 	3078452
scalar abilene_cost_network.statistics 	total_replicas 	100000
scalar abilene_cost_network.statistics 	inner_hit 	0.38276635937505
scalar abilene_cost_network.statistics 	interests_sent 	1980017
scalar abilene_cost_network.node[0].core_layer 	interests[0] 	243530
scalar abilene_cost_network.node[0].core_layer 	data[0] 	161424
scalar abilene_cost_network.node[0].core_layer 	repo_int[0] 	1209594
scalar abilene_cost_network.node[0].content_store 	p_hit[0] 	0.33293228760317
scalar abilene_cost_network.node[0].content_store 	hits[0] 	81079
scalar abilene_cost_network.node[0].content_store 	misses[0] 	162451
scalar abilene_cost_network.node[0].content_store 	decision_yes[0] 	647
scalar abilene_cost_network.node[0].content_store 	decision_no[0] 	160777
scalar abilene_cost_network.node[0].content_store 	decision_ratio[0] 	0.0040080781048667
scalar abilene_cost_network.node[0].content_store 	cache_value[0] 	2.4259331724407
scalar abilene_cost_network.node[0].content_store 	correction_factor[0] 	0.0027225701061802
scalar abilene_cost_network.node[0].content_store 	kappa[0] 	1
scalar abilene_cost_network.node[1].core_layer 	interests[1] 	595263
scalar abilene_cost_network.node[1].core_layer 	data[1] 	547108
scalar abilene_cost_network.node[1].content_store 	p_hit[1] 	0.066961998309991
scalar abilene_cost_network.node[1].content_store 	hits[1] 	39860
scalar abilene_cost_network.node[1].content_store 	misses[1] 	555403
scalar abilene_cost_network.node[1].content_store 	decision_yes[1] 	1439
scalar abilene_cost_network.node[1].content_store 	decision_no[1] 	545669
scalar abilene_cost_network.node[1].content_store 	decision_ratio[1] 	0.0026301936729128
scalar abilene_cost_network.node[1].content_store 	cache_value[1] 	1.623852390432
scalar abilene_cost_network.node[1].content_store 	correction_factor[1] 	0.0027225701061802
scalar abilene_cost_network.node[1].content_store 	kappa[1] 	1
scalar abilene_cost_network.node[2].core_layer 	interests[2] 	630232
scalar abilene_cost_network.node[2].core_layer 	data[2] 	577269
scalar abilene_cost_network.node[2].content_store 	p_hit[2] 	0.071127775168509
scalar abilene_cost_network.node[2].content_store 	hits[2] 	44827
scalar abilene_cost_network.node[2].content_store 	misses[2] 	585405
scalar abilene_cost_network.node[2].content_store 	decision_yes[2] 	2135
scalar abilene_cost_network.node[2].content_store 	decision_no[2] 	575133
scalar abilene_cost_network.node[2].content_store 	decision_ratio[2] 	0.003698455483415
scalar abilene_cost_network.node[2].content_store 	cache_value[2] 	2.2922700874681
scalar abilene_cost_network.node[2].content_store 	correction_factor[2] 	0.0027225701061802
scalar abilene_cost_network.node[2].content_store 	kappa[2] 	1
scalar abilene_cost_network.node[3].core_layer 	interests[3] 	627405
scalar abilene_cost_network.node[3].core_layer 	data[3] 	557694
scalar abilene_cost_network.node[3].content_store 	p_hit[3] 	0.10339573321857
scalar abilene_cost_network.node[3].content_store 	hits[3] 	64871
scalar abilene_cost_network.node[3].content_store 	misses[3] 	562534
scalar abilene_cost_network.node[3].content_store 	decision_yes[3] 	3646
scalar abilene_cost_network.node[3].content_store 	decision_no[3] 	554048
scalar abilene_cost_network.node[3].content_store 	decision_ratio[3] 	0.0065376353340721
scalar abilene_cost_network.node[3].content_store 	cache_value[3] 	6.8245681223763
scalar abilene_cost_network.node[3].content_store 	correction_factor[3] 	0.0027225701061802
scalar abilene_cost_network.node[3].content_store 	kappa[3] 	1
scalar abilene_cost_network.node[4].core_layer 	interests[4] 	458317
scalar abilene_cost_network.node[4].core_layer 	data[4] 	397403
scalar abilene_cost_network.node[4].content_store 	p_hit[4] 	0.12211198799084
scalar abilene_cost_network.node[4].content_store 	hits[4] 	55966
scalar abilene_cost_network.node[4].content_store 	misses[4] 	402351
scalar abilene_cost_network.node[4].content_store 	decision_yes[4] 	1066
scalar abilene_cost_network.node[4].content_store 	decision_no[4] 	396337
scalar abilene_cost_network.node[4].content_store 	decision_ratio[4] 	0.0026824155831738
scalar abilene_cost_network.node[4].content_store 	cache_value[4] 	1.4286504163609
scalar abilene_cost_network.node[4].content_store 	correction_factor[4] 	0.0027225701061802
scalar abilene_cost_network.node[4].content_store 	kappa[4] 	1
scalar abilene_cost_network.node[5].core_layer 	interests[5] 	591309
scalar abilene_cost_network.node[5].core_layer 	repo_load[5] 	309332
scalar abilene_cost_network.node[5].core_layer 	data[5] 	109313
scalar abilene_cost_network.node[5].content_store 	p_hit[5] 	0.29028139263904
scalar abilene_cost_network.node[5].content_store 	hits[5] 	171646
scalar abilene_cost_network.node[5].content_store 	misses[5] 	419663
scalar abilene_cost_network.node[5].content_store 	decision_yes[5] 	1549
scalar abilene_cost_network.node[5].content_store 	decision_no[5] 	417096
scalar abilene_cost_network.node[5].content_store 	decision_ratio[5] 	0.0037000322468918
scalar abilene_cost_network.node[5].content_store 	cache_value[5] 	3.1497796237378
scalar abilene_cost_network.node[5].content_store 	correction_factor[5] 	0.0027225701061802
scalar abilene_cost_network.node[5].content_store 	kappa[5] 	1
scalar abilene_cost_network.node[6].core_layer 	interests[6] 	365377
scalar abilene_cost_network.node[6].core_layer 	data[6] 	316460
scalar abilene_cost_network.node[6].content_store 	p_hit[6] 	0.12778308432113
scalar abilene_cost_network.node[6].content_store 	hits[6] 	46689
scalar abilene_cost_network.node[6].content_store 	misses[6] 	318688
scalar abilene_cost_network.node[6].content_store 	decision_yes[6] 	1838
scalar abilene_cost_network.node[6].content_store 	decision_no[6] 	314622
scalar abilene_cost_network.node[6].content_store 	decision_ratio[6] 	0.0058080010111862
scalar abilene_cost_network.node[6].content_store 	cache_value[6] 	5.5953698016524
scalar abilene_cost_network.node[6].content_store 	correction_factor[6] 	0.0027225701061802
scalar abilene_cost_network.node[6].content_store 	kappa[6] 	1
scalar abilene_cost_network.node[7].core_layer 	interests[7] 	645892
scalar abilene_cost_network.node[7].core_layer 	repo_load[7] 	276912
scalar abilene_cost_network.node[7].core_layer 	data[7] 	270426
scalar abilene_cost_network.node[7].content_store 	p_hit[7] 	0.14535247378819
scalar abilene_cost_network.node[7].content_store 	hits[7] 	93882
scalar abilene_cost_network.node[7].content_store 	misses[7] 	552010
scalar abilene_cost_network.node[7].content_store 	decision_yes[7] 	7898
scalar abilene_cost_network.node[7].content_store 	decision_no[7] 	539440
scalar abilene_cost_network.node[7].content_store 	decision_ratio[7] 	0.01442984042767
scalar abilene_cost_network.node[7].content_store 	cache_value[7] 	10.919913308047
scalar abilene_cost_network.node[7].content_store 	correction_factor[7] 	0.0027225701061802
scalar abilene_cost_network.node[7].content_store 	kappa[7] 	1
scalar abilene_cost_network.node[8].core_layer 	interests[8] 	477107
scalar abilene_cost_network.node[8].core_layer 	data[8] 	389904
scalar abilene_cost_network.node[8].content_store 	p_hit[8] 	0.1709721299415
scalar abilene_cost_network.node[8].content_store 	hits[8] 	81572
scalar abilene_cost_network.node[8].content_store 	misses[8] 	395535
scalar abilene_cost_network.node[8].content_store 	decision_yes[8] 	1958
scalar abilene_cost_network.node[8].content_store 	decision_no[8] 	387946
scalar abilene_cost_network.node[8].content_store 	decision_ratio[8] 	0.0050217489433296
scalar abilene_cost_network.node[8].content_store 	cache_value[8] 	3.7959965546142
scalar abilene_cost_network.node[8].content_store 	correction_factor[8] 	0.0027225701061802
scalar abilene_cost_network.node[8].content_store 	kappa[8] 	1
scalar abilene_cost_network.node[9].core_layer 	interests[9] 	419774
scalar abilene_cost_network.node[9].core_layer 	data[9] 	385492
scalar abilene_cost_network.node[9].content_store 	p_hit[9] 	0.07378017695236
scalar abilene_cost_network.node[9].content_store 	hits[9] 	30971
scalar abilene_cost_network.node[9].content_store 	misses[9] 	388803
scalar abilene_cost_network.node[9].content_store 	decision_yes[9] 	1367
scalar abilene_cost_network.node[9].content_store 	decision_no[9] 	384125
scalar abilene_cost_network.node[9].content_store 	decision_ratio[9] 	0.0035461176885642
scalar abilene_cost_network.node[9].content_store 	cache_value[9] 	4.0509161834678
scalar abilene_cost_network.node[9].content_store 	correction_factor[9] 	0.0027225701061802
scalar abilene_cost_network.node[9].content_store 	kappa[9] 	1
scalar abilene_cost_network.node[10].core_layer 	interests[10] 	786420
scalar abilene_cost_network.node[10].core_layer 	repo_load[10] 	623350
scalar abilene_cost_network.node[10].core_layer 	data[10] 	148103
scalar abilene_cost_network.node[10].content_store 	p_hit[10] 	0.01494239719234
scalar abilene_cost_network.node[10].content_store 	hits[10] 	11751
scalar abilene_cost_network.node[10].content_store 	misses[10] 	774669
scalar abilene_cost_network.node[10].content_store 	decision_yes[10] 	683
scalar abilene_cost_network.node[10].content_store 	decision_no[10] 	770770
scalar abilene_cost_network.node[10].content_store 	decision_ratio[10] 	0.00088534233452978
scalar abilene_cost_network.node[10].content_store 	cache_value[10] 	1.0319447564188
scalar abilene_cost_network.node[10].content_store 	correction_factor[10] 	0.0027225701061802
scalar abilene_cost_network.node[10].content_store 	kappa[10] 	1
scalar abilene_cost_network.client[0] 	hdistance[0] 	3.0429892736643
scalar abilene_cost_network.client[0] 	downloads[0] 	178719
scalar abilene_cost_network.client[0] 	avg_time[0] 	0.016498404162
scalar abilene_cost_network.client[0] 	interests_sent[0] 	179746
scalar abilene_cost_network.client[1] 	hdistance[1] 	2.6166354951787
scalar abilene_cost_network.client[1] 	downloads[1] 	178582
scalar abilene_cost_network.client[1] 	avg_time[1] 	0.01249855745
scalar abilene_cost_network.client[1] 	interests_sent[1] 	180523
scalar abilene_cost_network.client[2] 	hdistance[2] 	2.555852756176
scalar abilene_cost_network.client[2] 	downloads[2] 	177583
scalar abilene_cost_network.client[2] 	avg_time[2] 	0.012094337177
scalar abilene_cost_network.client[2] 	interests_sent[2] 	180106
scalar abilene_cost_network.client[3] 	hdistance[3] 	2.5484104980795
scalar abilene_cost_network.client[3] 	downloads[3] 	177823
scalar abilene_cost_network.client[3] 	avg_time[3] 	0.011086842559
scalar abilene_cost_network.client[3] 	interests_sent[3] 	179909
scalar abilene_cost_network.client[4] 	hdistance[4] 	2.7857443642795
scalar abilene_cost_network.client[4] 	downloads[4] 	178105
scalar abilene_cost_network.client[4] 	avg_time[4] 	0.011420969813
scalar abilene_cost_network.client[4] 	interests_sent[4] 	179886
scalar abilene_cost_network.client[5] 	hdistance[5] 	2.7758443987701
scalar abilene_cost_network.client[5] 	downloads[5] 	178559
scalar abilene_cost_network.client[5] 	avg_time[5] 	0.011641199818
scalar abilene_cost_network.client[5] 	interests_sent[5] 	179577
scalar abilene_cost_network.client[6] 	hdistance[6] 	2.5702785443738
scalar abilene_cost_network.client[6] 	downloads[6] 	179002
scalar abilene_cost_network.client[6] 	avg_time[6] 	0.012347250835
scalar abilene_cost_network.client[6] 	interests_sent[6] 	180472
scalar abilene_cost_network.client[7] 	hdistance[7] 	2.3401650611264
scalar abilene_cost_network.client[7] 	downloads[7] 	178237
scalar abilene_cost_network.client[7] 	avg_time[7] 	0.011248454141
scalar abilene_cost_network.client[7] 	interests_sent[7] 	180270
scalar abilene_cost_network.client[8] 	hdistance[8] 	2.4774770701825
scalar abilene_cost_network.client[8] 	downloads[8] 	176953
scalar abilene_cost_network.client[8] 	avg_time[8] 	0.01333503057
scalar abilene_cost_network.client[8] 	interests_sent[8] 	179891
scalar abilene_cost_network.client[9] 	hdistance[9] 	2.5474479175434
scalar abilene_cost_network.client[9] 	downloads[9] 	178227
scalar abilene_cost_network.client[9] 	avg_time[9] 	0.014843186986
scalar abilene_cost_network.client[9] 	interests_sent[9] 	180229
scalar abilene_cost_network.client[10] 	hdistance[10] 	2.5538412248752
scalar abilene_cost_network.client[10] 	downloads[10] 	177912
scalar abilene_cost_network.client[10] 	avg_time[10] 	0.013759347891
scalar abilene_cost_network.client[10] 	interests_sent[10] 	179408
