version 2
run General-16-20150224-18:09:59-13613
attr D costaware0.01
attr F nrr
attr R lru
attr a 1
attr configname General
attr csize 1e3
attr ctlg 1e5
attr datetime 20150224-18:09:59
attr experiment General
attr inifile omnetpp.ini
attr iterationvars "$rep=17, $net=abilene_cost, $lambda=100, $a=1, $ctlg=1e5, $F=nrr, $ttl=10, $D=costaware0.01, $R=lru, $csize=1e3, $window=60, $variance=0.05, $mytime=1800, $kappa=1, $priceratiovalue=10, $pricebits=0"
attr iterationvars2 "$rep=17, $net=abilene_cost, $lambda=100, $a=1, $ctlg=1e5, $F=nrr, $ttl=10, $D=costaware0.01, $R=lru, $csize=1e3, $window=60, $variance=0.05, $mytime=1800, $kappa=1, $priceratiovalue=10, $pricebits=0, $repetition=0"
attr kappa 1
attr lambda 100
attr measurement "$rep=17, $net=abilene_cost, $lambda=100, $a=1, $ctlg=1e5, $F=nrr, $ttl=10, $D=costaware0.01, $R=lru, $csize=1e3, $window=60, $variance=0.05, $mytime=1800, $kappa=1, $priceratiovalue=10, $pricebits=0"
attr mytime 1800
attr net abilene_cost
attr network networks.${net=abilene_cost}_network
attr pricebits 0
attr priceratiovalue 10
attr processid 13613
attr rep 17
attr repetition 0
attr replication #0
attr resultdir results
attr runnumber 16
attr seedset 17
attr ttl 10
attr variance 0.05
attr window 60

scalar . 	a 	1
scalar . 	csize 	1e3
scalar . 	ctlg 	1e5
scalar . 	kappa 	1
scalar . 	lambda 	100
scalar . 	mytime 	1800
scalar . 	pricebits 	0
scalar . 	priceratiovalue 	10
scalar . 	rep 	17
scalar . 	ttl 	10
scalar . 	variance 	0.05
scalar . 	window 	60
scalar abilene_cost_network.content_distribution 	repo-0 	5
scalar abilene_cost_network.content_distribution 	repo-1 	7
scalar abilene_cost_network.content_distribution 	repo-2 	6
scalar abilene_cost_network.content_distribution 	client-0 	7
scalar abilene_cost_network.content_distribution 	client-1 	0
scalar abilene_cost_network.content_distribution 	client-2 	5
scalar abilene_cost_network.content_distribution 	client-3 	10
scalar abilene_cost_network.content_distribution 	client-4 	3
scalar abilene_cost_network.content_distribution 	client-5 	1
scalar abilene_cost_network.content_distribution 	client-6 	6
scalar abilene_cost_network.content_distribution 	client-7 	9
scalar abilene_cost_network.content_distribution 	client-8 	4
scalar abilene_cost_network.content_distribution 	client-9 	2
scalar abilene_cost_network.content_distribution 	client-10 	8
scalar abilene_cost_network.content_distribution 	repo-0_card 	33441
scalar abilene_cost_network.content_distribution 	repo-0_price 	10
scalar abilene_cost_network.content_distribution 	repo-1_card 	33228
scalar abilene_cost_network.content_distribution 	repo-1_price 	0
scalar abilene_cost_network.content_distribution 	repo-2_card 	33331
scalar abilene_cost_network.content_distribution 	repo-2_price 	1
scalar abilene_cost_network.statistics 	repo_popularity[0] 	0.32362375749639
scalar abilene_cost_network.statistics 	repo_popularity[1] 	0.35340475535249
scalar abilene_cost_network.statistics 	repo_popularity[2] 	0.32297148715113
scalar abilene_cost_network.statistics 	stabilization_time 	293.1
scalar abilene_cost_network.statistics 	p_hit 	0.11450632048347
scalar abilene_cost_network.statistics 	interests 	527743
scalar abilene_cost_network.statistics 	data 	347809.72727273
scalar abilene_cost_network.statistics 	hdistance 	2.6331098290806
scalar abilene_cost_network.statistics 	avg_time 	0.012178434679
scalar abilene_cost_network.statistics 	downloads 	1958993
scalar abilene_cost_network.statistics 	total_cost 	2949218
scalar abilene_cost_network.statistics 	total_replicas 	100000
scalar abilene_cost_network.statistics 	inner_hit 	0.35429886681576
scalar abilene_cost_network.statistics 	interests_sent 	1979273
scalar abilene_cost_network.node[0].core_layer 	interests[0] 	188627
scalar abilene_cost_network.node[0].core_layer 	data[0] 	174522
scalar abilene_cost_network.node[0].core_layer 	repo_int[0] 	1264924
scalar abilene_cost_network.node[0].content_store 	p_hit[0] 	0.053380481055204
scalar abilene_cost_network.node[0].content_store 	hits[0] 	10069
scalar abilene_cost_network.node[0].content_store 	misses[0] 	178558
scalar abilene_cost_network.node[0].content_store 	decision_yes[0] 	693
scalar abilene_cost_network.node[0].content_store 	decision_no[0] 	173829
scalar abilene_cost_network.node[0].content_store 	decision_ratio[0] 	0.0039708460824423
scalar abilene_cost_network.node[0].content_store 	cache_value[0] 	0.98849135580114
scalar abilene_cost_network.node[0].content_store 	correction_factor[0] 	0.0027225701061802
scalar abilene_cost_network.node[0].content_store 	kappa[0] 	1
scalar abilene_cost_network.node[1].core_layer 	interests[1] 	426108
scalar abilene_cost_network.node[1].core_layer 	data[1] 	386513
scalar abilene_cost_network.node[1].content_store 	p_hit[1] 	0.069482384747529
scalar abilene_cost_network.node[1].content_store 	hits[1] 	29607
scalar abilene_cost_network.node[1].content_store 	misses[1] 	396501
scalar abilene_cost_network.node[1].content_store 	decision_yes[1] 	1891
scalar abilene_cost_network.node[1].content_store 	decision_no[1] 	384622
scalar abilene_cost_network.node[1].content_store 	decision_ratio[1] 	0.0048924615730907
scalar abilene_cost_network.node[1].content_store 	cache_value[1] 	2.1805979125032
scalar abilene_cost_network.node[1].content_store 	correction_factor[1] 	0.0027225701061802
scalar abilene_cost_network.node[1].content_store 	kappa[1] 	1
scalar abilene_cost_network.node[2].core_layer 	interests[2] 	624010
scalar abilene_cost_network.node[2].core_layer 	data[2] 	576304
scalar abilene_cost_network.node[2].content_store 	p_hit[2] 	0.056901331709428
scalar abilene_cost_network.node[2].content_store 	hits[2] 	35507
scalar abilene_cost_network.node[2].content_store 	misses[2] 	588503
scalar abilene_cost_network.node[2].content_store 	decision_yes[2] 	2546
scalar abilene_cost_network.node[2].content_store 	decision_no[2] 	573758
scalar abilene_cost_network.node[2].content_store 	decision_ratio[2] 	0.0044178072683861
scalar abilene_cost_network.node[2].content_store 	cache_value[2] 	2.8404799283701
scalar abilene_cost_network.node[2].content_store 	correction_factor[2] 	0.0027225701061802
scalar abilene_cost_network.node[2].content_store 	kappa[2] 	1
scalar abilene_cost_network.node[3].core_layer 	interests[3] 	829025
scalar abilene_cost_network.node[3].core_layer 	data[3] 	666024
scalar abilene_cost_network.node[3].content_store 	p_hit[3] 	0.19276137631555
scalar abilene_cost_network.node[3].content_store 	hits[3] 	159804
scalar abilene_cost_network.node[3].content_store 	misses[3] 	669221
scalar abilene_cost_network.node[3].content_store 	decision_yes[3] 	3209
scalar abilene_cost_network.node[3].content_store 	decision_no[3] 	662815
scalar abilene_cost_network.node[3].content_store 	decision_ratio[3] 	0.0048181446914826
scalar abilene_cost_network.node[3].content_store 	cache_value[3] 	11.782003571361
scalar abilene_cost_network.node[3].content_store 	correction_factor[3] 	0.0027225701061802
scalar abilene_cost_network.node[3].content_store 	kappa[3] 	1
scalar abilene_cost_network.node[4].core_layer 	interests[4] 	325919
scalar abilene_cost_network.node[4].core_layer 	data[4] 	299285
scalar abilene_cost_network.node[4].content_store 	p_hit[4] 	0.078117569089252
scalar abilene_cost_network.node[4].content_store 	hits[4] 	25460
scalar abilene_cost_network.node[4].content_store 	misses[4] 	300459
scalar abilene_cost_network.node[4].content_store 	decision_yes[4] 	3741
scalar abilene_cost_network.node[4].content_store 	decision_no[4] 	295544
scalar abilene_cost_network.node[4].content_store 	decision_ratio[4] 	0.012499791168953
scalar abilene_cost_network.node[4].content_store 	cache_value[4] 	3.9453918867012
scalar abilene_cost_network.node[4].content_store 	correction_factor[4] 	0.0027225701061802
scalar abilene_cost_network.node[4].content_store 	kappa[4] 	1
scalar abilene_cost_network.node[5].core_layer 	interests[5] 	519246
scalar abilene_cost_network.node[5].core_layer 	repo_load[5] 	263621
scalar abilene_cost_network.node[5].core_layer 	data[5] 	148799
scalar abilene_cost_network.node[5].content_store 	p_hit[5] 	0.20517442599462
scalar abilene_cost_network.node[5].content_store 	hits[5] 	106536
scalar abilene_cost_network.node[5].content_store 	misses[5] 	412710
scalar abilene_cost_network.node[5].content_store 	decision_yes[5] 	7261
scalar abilene_cost_network.node[5].content_store 	decision_no[5] 	405159
scalar abilene_cost_network.node[5].content_store 	decision_ratio[5] 	0.017605838708113
scalar abilene_cost_network.node[5].content_store 	cache_value[5] 	17.60368238643
scalar abilene_cost_network.node[5].content_store 	correction_factor[5] 	0.0027225701061802
scalar abilene_cost_network.node[5].content_store 	kappa[5] 	1
scalar abilene_cost_network.node[6].core_layer 	interests[6] 	691139
scalar abilene_cost_network.node[6].core_layer 	repo_load[6] 	313008
scalar abilene_cost_network.node[6].core_layer 	data[6] 	257779
scalar abilene_cost_network.node[6].content_store 	p_hit[6] 	0.17296375982255
scalar abilene_cost_network.node[6].content_store 	hits[6] 	119542
scalar abilene_cost_network.node[6].content_store 	misses[6] 	571597
scalar abilene_cost_network.node[6].content_store 	decision_yes[6] 	3532
scalar abilene_cost_network.node[6].content_store 	decision_no[6] 	567255
scalar abilene_cost_network.node[6].content_store 	decision_ratio[6] 	0.0061879475180759
scalar abilene_cost_network.node[6].content_store 	cache_value[6] 	3.826318152829
scalar abilene_cost_network.node[6].content_store 	correction_factor[6] 	0.0027225701061802
scalar abilene_cost_network.node[6].content_store 	kappa[6] 	1
scalar abilene_cost_network.node[7].core_layer 	interests[7] 	1189998
scalar abilene_cost_network.node[7].core_layer 	repo_load[7] 	688295
scalar abilene_cost_network.node[7].core_layer 	data[7] 	398964
scalar abilene_cost_network.node[7].content_store 	p_hit[7] 	0.085374933403249
scalar abilene_cost_network.node[7].content_store 	hits[7] 	101596
scalar abilene_cost_network.node[7].content_store 	misses[7] 	1088402
scalar abilene_cost_network.node[7].content_store 	decision_yes[7] 	2357
scalar abilene_cost_network.node[7].content_store 	decision_no[7] 	1084902
scalar abilene_cost_network.node[7].content_store 	decision_ratio[7] 	0.0021678367343936
scalar abilene_cost_network.node[7].content_store 	cache_value[7] 	1.816695159188
scalar abilene_cost_network.node[7].content_store 	correction_factor[7] 	0.0027225701061802
scalar abilene_cost_network.node[7].content_store 	kappa[7] 	1
scalar abilene_cost_network.node[8].core_layer 	interests[8] 	483428
scalar abilene_cost_network.node[8].core_layer 	data[8] 	445065
scalar abilene_cost_network.node[8].content_store 	p_hit[8] 	0.066684180477755
scalar abilene_cost_network.node[8].content_store 	hits[8] 	32237
scalar abilene_cost_network.node[8].content_store 	misses[8] 	451191
scalar abilene_cost_network.node[8].content_store 	decision_yes[8] 	1351
scalar abilene_cost_network.node[8].content_store 	decision_no[8] 	443714
scalar abilene_cost_network.node[8].content_store 	decision_ratio[8] 	0.0030355116668352
scalar abilene_cost_network.node[8].content_store 	cache_value[8] 	1.4969802274823
scalar abilene_cost_network.node[8].content_store 	correction_factor[8] 	0.0027225701061802
scalar abilene_cost_network.node[8].content_store 	kappa[8] 	1
scalar abilene_cost_network.node[9].core_layer 	interests[9] 	323818
scalar abilene_cost_network.node[9].core_layer 	data[9] 	282997
scalar abilene_cost_network.node[9].content_store 	p_hit[9] 	0.10504048570493
scalar abilene_cost_network.node[9].content_store 	hits[9] 	34014
scalar abilene_cost_network.node[9].content_store 	misses[9] 	289804
scalar abilene_cost_network.node[9].content_store 	decision_yes[9] 	752
scalar abilene_cost_network.node[9].content_store 	decision_no[9] 	282245
scalar abilene_cost_network.node[9].content_store 	decision_ratio[9] 	0.0026572719852154
scalar abilene_cost_network.node[9].content_store 	cache_value[9] 	1.3698425288991
scalar abilene_cost_network.node[9].content_store 	correction_factor[9] 	0.0027225701061802
scalar abilene_cost_network.node[9].content_store 	kappa[9] 	1
scalar abilene_cost_network.node[10].core_layer 	interests[10] 	203855
scalar abilene_cost_network.node[10].core_layer 	data[10] 	189655
scalar abilene_cost_network.node[10].content_store 	p_hit[10] 	0.050805719751784
scalar abilene_cost_network.node[10].content_store 	hits[10] 	10357
scalar abilene_cost_network.node[10].content_store 	misses[10] 	193498
scalar abilene_cost_network.node[10].content_store 	decision_yes[10] 	711
scalar abilene_cost_network.node[10].content_store 	decision_no[10] 	188944
scalar abilene_cost_network.node[10].content_store 	decision_ratio[10] 	0.0037489124990114
scalar abilene_cost_network.node[10].content_store 	cache_value[10] 	0.84418388952985
scalar abilene_cost_network.node[10].content_store 	correction_factor[10] 	0.0027225701061802
scalar abilene_cost_network.node[10].content_store 	kappa[10] 	1
scalar abilene_cost_network.client[0] 	hdistance[0] 	4.58701418194
scalar abilene_cost_network.client[0] 	downloads[0] 	176069
scalar abilene_cost_network.client[0] 	avg_time[0] 	0.025661282541
scalar abilene_cost_network.client[0] 	interests_sent[0] 	180105
scalar abilene_cost_network.client[1] 	hdistance[1] 	3.6296265136601
scalar abilene_cost_network.client[1] 	downloads[1] 	178293
scalar abilene_cost_network.client[1] 	avg_time[1] 	0.015555570205
scalar abilene_cost_network.client[1] 	interests_sent[1] 	180453
scalar abilene_cost_network.client[2] 	hdistance[2] 	2.7358572915384
scalar abilene_cost_network.client[2] 	downloads[2] 	178714
scalar abilene_cost_network.client[2] 	avg_time[2] 	0.010603276589
scalar abilene_cost_network.client[2] 	interests_sent[2] 	180005
scalar abilene_cost_network.client[3] 	hdistance[3] 	1.9301405436733
scalar abilene_cost_network.client[3] 	downloads[3] 	179446
scalar abilene_cost_network.client[3] 	avg_time[3] 	0.006458526068
scalar abilene_cost_network.client[3] 	interests_sent[3] 	179847
scalar abilene_cost_network.client[4] 	hdistance[4] 	2.2509956816504
scalar abilene_cost_network.client[4] 	downloads[4] 	178772
scalar abilene_cost_network.client[4] 	avg_time[4] 	0.006931028598
scalar abilene_cost_network.client[4] 	interests_sent[4] 	179891
scalar abilene_cost_network.client[5] 	hdistance[5] 	1.7029614052311
scalar abilene_cost_network.client[5] 	downloads[5] 	179273
scalar abilene_cost_network.client[5] 	avg_time[5] 	0.00348246299
scalar abilene_cost_network.client[5] 	interests_sent[5] 	179551
scalar abilene_cost_network.client[6] 	hdistance[6] 	1.3811594607419
scalar abilene_cost_network.client[6] 	downloads[6] 	179135
scalar abilene_cost_network.client[6] 	avg_time[6] 	0.002899074607
scalar abilene_cost_network.client[6] 	interests_sent[6] 	179561
scalar abilene_cost_network.client[7] 	hdistance[7] 	1.4219225484142
scalar abilene_cost_network.client[7] 	downloads[7] 	179751
scalar abilene_cost_network.client[7] 	avg_time[7] 	0.003943081273
scalar abilene_cost_network.client[7] 	interests_sent[7] 	180401
scalar abilene_cost_network.client[8] 	hdistance[8] 	2.2576719517265
scalar abilene_cost_network.client[8] 	downloads[8] 	177986
scalar abilene_cost_network.client[8] 	avg_time[8] 	0.010555553921
scalar abilene_cost_network.client[8] 	interests_sent[8] 	179884
scalar abilene_cost_network.client[9] 	hdistance[9] 	3.150930549251
scalar abilene_cost_network.client[9] 	downloads[9] 	176240
scalar abilene_cost_network.client[9] 	avg_time[9] 	0.023338789256
scalar abilene_cost_network.client[9] 	interests_sent[9] 	180477
scalar abilene_cost_network.client[10] 	hdistance[10] 	3.91592799206
scalar abilene_cost_network.client[10] 	downloads[10] 	175314
scalar abilene_cost_network.client[10] 	avg_time[10] 	0.024534135421
scalar abilene_cost_network.client[10] 	interests_sent[10] 	179098
