version 2
run General-4-20150902-20:49:48-2317
attr C 1e3
attr D fix0.01
attr F spr
attr R partitionedn
attr a 1
attr brates 0.3_0.7_1.5_2.5_3.5
attr configname General
attr ctlg 1e5
attr datetime 20150902-20:49:48
attr experiment General
attr inifile omnetpp.ini
attr iterationvars "$net=abilene_nodelay, $rep=0, $lambda=100, $a=1, $ctlg=1e5, $brates=0.3_0.7_1.5_2.5_3.5, $F=spr, $ttl=1000, $D=fix0.01, $R=partitionedn, $proactiveprob=0.1, $C=1e3, $window=60, $variance=0.05, $mytime=180000"
attr iterationvars2 "$net=abilene_nodelay, $rep=0, $lambda=100, $a=1, $ctlg=1e5, $brates=0.3_0.7_1.5_2.5_3.5, $F=spr, $ttl=1000, $D=fix0.01, $R=partitionedn, $proactiveprob=0.1, $C=1e3, $window=60, $variance=0.05, $mytime=180000, $repetition=0"
attr lambda 100
attr measurement "$net=abilene_nodelay, $rep=0, $lambda=100, $a=1, $ctlg=1e5, $brates=0.3_0.7_1.5_2.5_3.5, $F=spr, $ttl=1000, $D=fix0.01, $R=partitionedn, $proactiveprob=0.1, $C=1e3, $window=60, $variance=0.05, $mytime=180000"
attr mytime 180000
attr net abilene_nodelay
attr network networks.${net=abilene_nodelay}_network
attr proactiveprob 0.1
attr processid 2317
attr rep 0
attr repetition 0
attr replication #0
attr resultdir results
attr runnumber 4
attr seedset 0
attr ttl 1000
attr variance 0.05
attr window 60

scalar . 	C 	1e3
scalar . 	a 	1
scalar . 	ctlg 	1e5
scalar . 	lambda 	100
scalar . 	mytime 	180000
scalar . 	proactiveprob 	0.1
scalar . 	rep 	0
scalar . 	ttl 	1000
scalar . 	variance 	0.05
scalar . 	window 	60
scalar abilene_nodelay_network.content_distribution 	repo-0 	5
scalar abilene_nodelay_network.content_distribution 	repo-1 	8
scalar abilene_nodelay_network.content_distribution 	repo-2 	9
scalar abilene_nodelay_network.content_distribution 	repo-3 	0
scalar abilene_nodelay_network.content_distribution 	repo-4 	1
scalar abilene_nodelay_network.content_distribution 	repo-5 	7
scalar abilene_nodelay_network.content_distribution 	repo-6 	6
scalar abilene_nodelay_network.content_distribution 	repo-7 	2
scalar abilene_nodelay_network.content_distribution 	repo-8 	4
scalar abilene_nodelay_network.content_distribution 	repo-9 	10
scalar abilene_nodelay_network.content_distribution 	repo-10 	3
scalar abilene_nodelay_network.content_distribution 	client-0 	10
scalar abilene_nodelay_network.content_distribution 	client-1 	9
scalar abilene_nodelay_network.content_distribution 	client-2 	8
scalar abilene_nodelay_network.content_distribution 	client-3 	7
scalar abilene_nodelay_network.content_distribution 	client-4 	3
scalar abilene_nodelay_network.content_distribution 	client-5 	6
scalar abilene_nodelay_network.content_distribution 	client-6 	5
scalar abilene_nodelay_network.content_distribution 	client-7 	1
scalar abilene_nodelay_network.content_distribution 	client-8 	4
scalar abilene_nodelay_network.content_distribution 	client-9 	0
scalar abilene_nodelay_network.content_distribution 	client-10 	2
scalar abilene_nodelay_network.content_distribution 	repo-0_card 	9071
scalar abilene_nodelay_network.content_distribution 	repo-0_price 	0
scalar abilene_nodelay_network.content_distribution 	repo-1_card 	8986
scalar abilene_nodelay_network.content_distribution 	repo-1_price 	0
scalar abilene_nodelay_network.content_distribution 	repo-2_card 	9050
scalar abilene_nodelay_network.content_distribution 	repo-2_price 	0
scalar abilene_nodelay_network.content_distribution 	repo-3_card 	8986
scalar abilene_nodelay_network.content_distribution 	repo-3_price 	0
scalar abilene_nodelay_network.content_distribution 	repo-4_card 	9064
scalar abilene_nodelay_network.content_distribution 	repo-4_price 	0
scalar abilene_nodelay_network.content_distribution 	repo-5_card 	9170
scalar abilene_nodelay_network.content_distribution 	repo-5_price 	0
scalar abilene_nodelay_network.content_distribution 	repo-6_card 	9151
scalar abilene_nodelay_network.content_distribution 	repo-6_price 	0
scalar abilene_nodelay_network.content_distribution 	repo-7_card 	9112
scalar abilene_nodelay_network.content_distribution 	repo-7_price 	0
scalar abilene_nodelay_network.content_distribution 	repo-8_card 	9132
scalar abilene_nodelay_network.content_distribution 	repo-8_price 	0
scalar abilene_nodelay_network.content_distribution 	repo-9_card 	9101
scalar abilene_nodelay_network.content_distribution 	repo-9_price 	0
scalar abilene_nodelay_network.content_distribution 	repo-10_card 	9177
scalar abilene_nodelay_network.content_distribution 	repo-10_price 	0
scalar abilene_nodelay_network.statistics 	stabilization_time 	36060
scalar abilene_nodelay_network.statistics 	p_hit 	0.32545666409892
scalar abilene_nodelay_network.statistics 	interests 	32559101.454545
scalar abilene_nodelay_network.statistics 	data 	14301066.636364
scalar abilene_nodelay_network.statistics 	hdistance 	1.1882070460904
scalar abilene_nodelay_network.statistics 	avg_time 	0
scalar abilene_nodelay_network.statistics 	downloads 	197980075
scalar abilene_nodelay_network.statistics 	total_cost 	0
scalar abilene_nodelay_network.statistics 	total_replicas 	100000
scalar abilene_nodelay_network.statistics 	"representations_downloaded 0.442837:0.0382569:0.0374856:0.0397861:0.441634:" 	0
scalar abilene_nodelay_network.statistics 	"slots_per_representation 100:233:500:833:1167:" 	0
scalar abilene_nodelay_network.statistics 	inner_hit 	0.57432059261519
scalar abilene_nodelay_network.statistics 	execution_time 	7618
scalar abilene_nodelay_network.node[0].core_layer 	interests[0] 	23590606
scalar abilene_nodelay_network.node[0].core_layer 	repo_load[0] 	6678594
scalar abilene_nodelay_network.node[0].core_layer 	data[0] 	6439054
scalar abilene_nodelay_network.node[0].core_layer 	slots_sent[face$o[1]->client[0]] 	11683098885
scalar abilene_nodelay_network.node[0].core_layer 	slots_sent[face$o[2]->node[1]] 	472842521
scalar abilene_nodelay_network.node[0].core_layer 	slots_sent[face$o[3]->node[10]] 	156892532
scalar abilene_nodelay_network.node[0].content_store 	p_hit[0] 	0.44394611990892
scalar abilene_nodelay_network.node[0].content_store 	hits[0] 	10472958
scalar abilene_nodelay_network.node[0].content_store 	misses[0] 	13117648
scalar abilene_nodelay_network.node[0].content_store 	decision_yes[0] 	64599
scalar abilene_nodelay_network.node[0].content_store 	decision_no[0] 	13053049
scalar abilene_nodelay_network.node[0].content_store 	decision_ratio[0] 	0.0049245870906126
scalar abilene_nodelay_network.node[0].content_store 	"representation_breakdown[0] 0x7fff4272ead8:0x7fff4272ead8:0x7fff4272ead8:0x7fff4272ead8:0x7fff4272ead8:" 	0
scalar abilene_nodelay_network.node[0].proactive_component 	hdistance[0].proactive_component 	2.2458667003461
scalar abilene_nodelay_network.node[0].proactive_component 	downloads[0].proactive_component 	253369
scalar abilene_nodelay_network.node[0].proactive_component 	avg_time[0].proactive_component 	0
scalar abilene_nodelay_network.node[1].core_layer 	interests[1] 	36924831
scalar abilene_nodelay_network.node[1].core_layer 	repo_load[1] 	8045098
scalar abilene_nodelay_network.node[1].core_layer 	data[1] 	18379672
scalar abilene_nodelay_network.node[1].core_layer 	slots_sent[face$o[1]->client[1]] 	10617736010
scalar abilene_nodelay_network.node[1].core_layer 	slots_sent[face$o[2]->node[0]] 	738576279
scalar abilene_nodelay_network.node[1].core_layer 	slots_sent[face$o[3]->node[10]] 	533938235
scalar abilene_nodelay_network.node[1].core_layer 	slots_sent[face$o[4]->node[2]] 	1228160949
scalar abilene_nodelay_network.node[1].content_store 	p_hit[1] 	0.28436314305677
scalar abilene_nodelay_network.node[1].content_store 	hits[1] 	10500061
scalar abilene_nodelay_network.node[1].content_store 	misses[1] 	26424770
scalar abilene_nodelay_network.node[1].content_store 	decision_yes[1] 	184266
scalar abilene_nodelay_network.node[1].content_store 	decision_no[1] 	26240504
scalar abilene_nodelay_network.node[1].content_store 	decision_ratio[1] 	0.0069732300413589
scalar abilene_nodelay_network.node[1].content_store 	"representation_breakdown[1] 0x7fff4272ead8:0x7fff4272ead8:0x7fff4272ead8:0x7fff4272ead8:0x7fff4272ead8:" 	0
scalar abilene_nodelay_network.node[1].proactive_component 	hdistance[1].proactive_component 	2.2745249650847
scalar abilene_nodelay_network.node[1].proactive_component 	downloads[1].proactive_component 	373762
scalar abilene_nodelay_network.node[1].proactive_component 	avg_time[1].proactive_component 	0
scalar abilene_nodelay_network.node[2].core_layer 	interests[2] 	46899979
scalar abilene_nodelay_network.node[2].core_layer 	repo_load[2] 	9004544
scalar abilene_nodelay_network.node[2].core_layer 	data[2] 	27278170
scalar abilene_nodelay_network.node[2].core_layer 	slots_sent[face$o[1]->client[2]] 	10357268899
scalar abilene_nodelay_network.node[2].core_layer 	slots_sent[face$o[2]->node[1]] 	1468226218
scalar abilene_nodelay_network.node[2].core_layer 	slots_sent[face$o[3]->node[3]] 	1694207754
scalar abilene_nodelay_network.node[2].core_layer 	slots_sent[face$o[4]->node[8]] 	737479800
scalar abilene_nodelay_network.node[2].content_store 	p_hit[2] 	0.22638101820898
scalar abilene_nodelay_network.node[2].content_store 	hits[2] 	10617265
scalar abilene_nodelay_network.node[2].content_store 	misses[2] 	36282714
scalar abilene_nodelay_network.node[2].content_store 	decision_yes[2] 	272658
scalar abilene_nodelay_network.node[2].content_store 	decision_no[2] 	36010056
scalar abilene_nodelay_network.node[2].content_store 	decision_ratio[2] 	0.0075148182134335
scalar abilene_nodelay_network.node[2].content_store 	"representation_breakdown[2] 0x7fff4272ead8:0x7fff4272ead8:0x7fff4272ead8:0x7fff4272ead8:0x7fff4272ead8:" 	0
scalar abilene_nodelay_network.node[2].proactive_component 	hdistance[2].proactive_component 	2.2546769301379
scalar abilene_nodelay_network.node[2].proactive_component 	downloads[2].proactive_component 	400904
scalar abilene_nodelay_network.node[2].proactive_component 	avg_time[2].proactive_component 	0
scalar abilene_nodelay_network.node[3].core_layer 	interests[3] 	44454147
scalar abilene_nodelay_network.node[3].core_layer 	repo_load[3] 	7966769
scalar abilene_nodelay_network.node[3].core_layer 	data[3] 	25142788
scalar abilene_nodelay_network.node[3].core_layer 	slots_sent[face$o[1]->client[3]] 	11097516612
scalar abilene_nodelay_network.node[3].core_layer 	slots_sent[face$o[2]->node[2]] 	1644185452
scalar abilene_nodelay_network.node[3].core_layer 	slots_sent[face$o[3]->node[4]] 	1110208387
scalar abilene_nodelay_network.node[3].core_layer 	slots_sent[face$o[4]->node[7]] 	800477836
scalar abilene_nodelay_network.node[3].content_store 	p_hit[3] 	0.25519756345792
scalar abilene_nodelay_network.node[3].content_store 	hits[3] 	11344590
scalar abilene_nodelay_network.node[3].content_store 	misses[3] 	33109557
scalar abilene_nodelay_network.node[3].content_store 	decision_yes[3] 	251652
scalar abilene_nodelay_network.node[3].content_store 	decision_no[3] 	32857905
scalar abilene_nodelay_network.node[3].content_store 	decision_ratio[3] 	0.0076005849308102
scalar abilene_nodelay_network.node[3].content_store 	"representation_breakdown[3] 0x7fff4272ead8:0x7fff4272ead8:0x7fff4272ead8:0x7fff4272ead8:0x7fff4272ead8:" 	0
scalar abilene_nodelay_network.node[3].proactive_component 	hdistance[3].proactive_component 	2.2410451059532
scalar abilene_nodelay_network.node[3].proactive_component 	downloads[3].proactive_component 	411786
scalar abilene_nodelay_network.node[3].proactive_component 	avg_time[3].proactive_component 	0
scalar abilene_nodelay_network.node[4].core_layer 	interests[4] 	29607754
scalar abilene_nodelay_network.node[4].core_layer 	repo_load[4] 	6973352
scalar abilene_nodelay_network.node[4].core_layer 	data[4] 	11812638
scalar abilene_nodelay_network.node[4].core_layer 	slots_sent[face$o[1]->client[4]] 	11578897395
scalar abilene_nodelay_network.node[4].core_layer 	slots_sent[face$o[2]->node[3]] 	859459451
scalar abilene_nodelay_network.node[4].core_layer 	slots_sent[face$o[3]->node[5]] 	617277582
scalar abilene_nodelay_network.node[4].content_store 	p_hit[4] 	0.36550438780328
scalar abilene_nodelay_network.node[4].content_store 	hits[4] 	10821764
scalar abilene_nodelay_network.node[4].content_store 	misses[4] 	18785990
scalar abilene_nodelay_network.node[4].content_store 	decision_yes[4] 	118549
scalar abilene_nodelay_network.node[4].content_store 	decision_no[4] 	18667441
scalar abilene_nodelay_network.node[4].content_store 	decision_ratio[4] 	0.0063105005379009
scalar abilene_nodelay_network.node[4].content_store 	"representation_breakdown[4] 0x7fff4272ead8:0x7fff4272ead8:0x7fff4272ead8:0x7fff4272ead8:0x7fff4272ead8:" 	0
scalar abilene_nodelay_network.node[4].proactive_component 	hdistance[4].proactive_component 	2.2489738827359
scalar abilene_nodelay_network.node[4].proactive_component 	downloads[4].proactive_component 	305277
scalar abilene_nodelay_network.node[4].proactive_component 	avg_time[4].proactive_component 	0
scalar abilene_nodelay_network.node[5].core_layer 	interests[5] 	25086986
scalar abilene_nodelay_network.node[5].core_layer 	repo_load[5] 	8241835
scalar abilene_nodelay_network.node[5].core_layer 	data[5] 	7689551
scalar abilene_nodelay_network.node[5].core_layer 	slots_sent[face$o[1]->client[5]] 	10235494455
scalar abilene_nodelay_network.node[5].core_layer 	slots_sent[face$o[2]->node[4]] 	469548121
scalar abilene_nodelay_network.node[5].core_layer 	slots_sent[face$o[3]->node[6]] 	358415579
scalar abilene_nodelay_network.node[5].content_store 	p_hit[5] 	0.36495416388402
scalar abilene_nodelay_network.node[5].content_store 	hits[5] 	9155600
scalar abilene_nodelay_network.node[5].content_store 	misses[5] 	15931386
scalar abilene_nodelay_network.node[5].content_store 	decision_yes[5] 	76589
scalar abilene_nodelay_network.node[5].content_store 	decision_no[5] 	15854797
scalar abilene_nodelay_network.node[5].content_store 	decision_ratio[5] 	0.0048074285564357
scalar abilene_nodelay_network.node[5].content_store 	"representation_breakdown[5] 0x7fff4272ead8:0x7fff4272ead8:0x7fff4272ead8:0x7fff4272ead8:0x7fff4272ead8:" 	0
scalar abilene_nodelay_network.node[5].proactive_component 	hdistance[5].proactive_component 	2.2598836254429
scalar abilene_nodelay_network.node[5].proactive_component 	downloads[5].proactive_component 	255726
scalar abilene_nodelay_network.node[5].proactive_component 	avg_time[5].proactive_component 	0
scalar abilene_nodelay_network.node[6].core_layer 	interests[6] 	27542656
scalar abilene_nodelay_network.node[6].core_layer 	repo_load[6] 	6984372
scalar abilene_nodelay_network.node[6].core_layer 	data[6] 	9861948
scalar abilene_nodelay_network.node[6].core_layer 	slots_sent[face$o[1]->client[6]] 	11671845948
scalar abilene_nodelay_network.node[6].core_layer 	slots_sent[face$o[2]->node[5]] 	431322119
scalar abilene_nodelay_network.node[6].core_layer 	slots_sent[face$o[3]->node[7]] 	731063208
scalar abilene_nodelay_network.node[6].content_store 	p_hit[6] 	0.38835528425436
scalar abilene_nodelay_network.node[6].content_store 	hits[6] 	10696336
scalar abilene_nodelay_network.node[6].content_store 	misses[6] 	16846320
scalar abilene_nodelay_network.node[6].content_store 	decision_yes[6] 	98759
scalar abilene_nodelay_network.node[6].content_store 	decision_no[6] 	16747561
scalar abilene_nodelay_network.node[6].content_store 	decision_ratio[6] 	0.0058623485722698
scalar abilene_nodelay_network.node[6].content_store 	"representation_breakdown[6] 0x7fff4272ead8:0x7fff4272ead8:0x7fff4272ead8:0x7fff4272ead8:0x7fff4272ead8:" 	0
scalar abilene_nodelay_network.node[6].proactive_component 	hdistance[6].proactive_component 	2.2354110753835
scalar abilene_nodelay_network.node[6].proactive_component 	downloads[6].proactive_component 	274609
scalar abilene_nodelay_network.node[6].proactive_component 	avg_time[6].proactive_component 	0
scalar abilene_nodelay_network.node[7].core_layer 	interests[7] 	35398795
scalar abilene_nodelay_network.node[7].core_layer 	repo_load[7] 	7805098
scalar abilene_nodelay_network.node[7].core_layer 	data[7] 	16377802
scalar abilene_nodelay_network.node[7].core_layer 	slots_sent[face$o[1]->client[7]] 	11598563847
scalar abilene_nodelay_network.node[7].core_layer 	slots_sent[face$o[2]->node[3]] 	672859032
scalar abilene_nodelay_network.node[7].core_layer 	slots_sent[face$o[3]->node[6]] 	953561275
scalar abilene_nodelay_network.node[7].core_layer 	slots_sent[face$o[4]->node[8]] 	627714013
scalar abilene_nodelay_network.node[7].content_store 	p_hit[7] 	0.31684397731618
scalar abilene_nodelay_network.node[7].content_store 	hits[7] 	11215895
scalar abilene_nodelay_network.node[7].content_store 	misses[7] 	24182900
scalar abilene_nodelay_network.node[7].content_store 	decision_yes[7] 	163675
scalar abilene_nodelay_network.node[7].content_store 	decision_no[7] 	24019225
scalar abilene_nodelay_network.node[7].content_store 	decision_ratio[7] 	0.0067682122491513
scalar abilene_nodelay_network.node[7].content_store 	"representation_breakdown[7] 0x7fff4272ead8:0x7fff4272ead8:0x7fff4272ead8:0x7fff4272ead8:0x7fff4272ead8:" 	0
scalar abilene_nodelay_network.node[7].proactive_component 	hdistance[7].proactive_component 	2.1708070581429
scalar abilene_nodelay_network.node[7].proactive_component 	downloads[7].proactive_component 	345700
scalar abilene_nodelay_network.node[7].proactive_component 	avg_time[7].proactive_component 	0
scalar abilene_nodelay_network.node[8].core_layer 	interests[8] 	34058938
scalar abilene_nodelay_network.node[8].core_layer 	repo_load[8] 	7320931
scalar abilene_nodelay_network.node[8].core_layer 	data[8] 	15520985
scalar abilene_nodelay_network.node[8].core_layer 	slots_sent[face$o[1]->client[8]] 	11601340005
scalar abilene_nodelay_network.node[8].core_layer 	slots_sent[face$o[2]->node[2]] 	606028096
scalar abilene_nodelay_network.node[8].core_layer 	slots_sent[face$o[3]->node[7]] 	612957973
scalar abilene_nodelay_network.node[8].core_layer 	slots_sent[face$o[4]->node[9]] 	826130020
scalar abilene_nodelay_network.node[8].content_store 	p_hit[8] 	0.32934150794719
scalar abilene_nodelay_network.node[8].content_store 	hits[8] 	11217022
scalar abilene_nodelay_network.node[8].content_store 	misses[8] 	22841916
scalar abilene_nodelay_network.node[8].content_store 	decision_yes[8] 	155716
scalar abilene_nodelay_network.node[8].content_store 	decision_no[8] 	22686200
scalar abilene_nodelay_network.node[8].content_store 	decision_ratio[8] 	0.0068171163925128
scalar abilene_nodelay_network.node[8].content_store 	"representation_breakdown[8] 0x7fff4272ead8:0x7fff4272ead8:0x7fff4272ead8:0x7fff4272ead8:0x7fff4272ead8:" 	0
scalar abilene_nodelay_network.node[8].proactive_component 	hdistance[8].proactive_component 	2.131168103931
scalar abilene_nodelay_network.node[8].proactive_component 	downloads[8].proactive_component 	357160
scalar abilene_nodelay_network.node[8].proactive_component 	avg_time[8].proactive_component 	0
scalar abilene_nodelay_network.node[9].core_layer 	interests[9] 	27612406
scalar abilene_nodelay_network.node[9].core_layer 	repo_load[9] 	7303761
scalar abilene_nodelay_network.node[9].core_layer 	data[9] 	9829359
scalar abilene_nodelay_network.node[9].core_layer 	slots_sent[face$o[1]->client[9]] 	11422830723
scalar abilene_nodelay_network.node[9].core_layer 	slots_sent[face$o[2]->node[10]] 	498251525
scalar abilene_nodelay_network.node[9].core_layer 	slots_sent[face$o[3]->node[8]] 	672740117
scalar abilene_nodelay_network.node[9].content_store 	p_hit[9] 	0.37951368671024
scalar abilene_nodelay_network.node[9].content_store 	hits[9] 	10479286
scalar abilene_nodelay_network.node[9].content_store 	misses[9] 	17133120
scalar abilene_nodelay_network.node[9].content_store 	decision_yes[9] 	98831
scalar abilene_nodelay_network.node[9].content_store 	decision_no[9] 	17034289
scalar abilene_nodelay_network.node[9].content_store 	decision_ratio[9] 	0.0057684181281635
scalar abilene_nodelay_network.node[9].content_store 	"representation_breakdown[9] 0x7fff4272ead8:0x7fff4272ead8:0x7fff4272ead8:0x7fff4272ead8:0x7fff4272ead8:" 	0
scalar abilene_nodelay_network.node[9].proactive_component 	hdistance[9].proactive_component 	2.201246924315
scalar abilene_nodelay_network.node[9].proactive_component 	downloads[9].proactive_component 	270265
scalar abilene_nodelay_network.node[9].proactive_component 	avg_time[9].proactive_component 	0
scalar abilene_nodelay_network.node[10].core_layer 	interests[10] 	26973018
scalar abilene_nodelay_network.node[10].core_layer 	repo_load[10] 	7951687
scalar abilene_nodelay_network.node[10].core_layer 	data[10] 	8979766
scalar abilene_nodelay_network.node[10].core_layer 	slots_sent[face$o[1]->client[10]] 	10976029474
scalar abilene_nodelay_network.node[10].core_layer 	slots_sent[face$o[2]->node[0]] 	178503344
scalar abilene_nodelay_network.node[10].core_layer 	slots_sent[face$o[3]->node[1]] 	444400069
scalar abilene_nodelay_network.node[10].core_layer 	slots_sent[face$o[4]->node[9]] 	434448295
scalar abilene_nodelay_network.node[10].content_store 	p_hit[10] 	0.37228184847539
scalar abilene_nodelay_network.node[10].content_store 	hits[10] 	10041565
scalar abilene_nodelay_network.node[10].content_store 	misses[10] 	16931453
scalar abilene_nodelay_network.node[10].content_store 	decision_yes[10] 	89504
scalar abilene_nodelay_network.node[10].content_store 	decision_no[10] 	16841949
scalar abilene_nodelay_network.node[10].content_store 	decision_ratio[10] 	0.0052862562947197
scalar abilene_nodelay_network.node[10].content_store 	"representation_breakdown[10] 0x7fff4272ead8:0x7fff4272ead8:0x7fff4272ead8:0x7fff4272ead8:0x7fff4272ead8:" 	0
scalar abilene_nodelay_network.node[10].proactive_component 	hdistance[10].proactive_component 	2.1541073223786
scalar abilene_nodelay_network.node[10].proactive_component 	downloads[10].proactive_component 	279513
scalar abilene_nodelay_network.node[10].proactive_component 	avg_time[10].proactive_component 	0
scalar abilene_nodelay_network.client[0] 	hdistance[0].real 	1.3128999891873
scalar abilene_nodelay_network.client[0] 	downloads[0].real 	17997674
scalar abilene_nodelay_network.client[0] 	avg_time[0].real 	0
scalar abilene_nodelay_network.client[1] 	hdistance[1].real 	1.1853687164448
scalar abilene_nodelay_network.client[1] 	downloads[1].real 	17997136
scalar abilene_nodelay_network.client[1] 	avg_time[1].real 	0
scalar abilene_nodelay_network.client[2] 	hdistance[2].real 	1.0984768153885
scalar abilene_nodelay_network.client[2] 	downloads[2].real 	17996571
scalar abilene_nodelay_network.client[2] 	avg_time[2].real 	0
scalar abilene_nodelay_network.client[3] 	hdistance[3].real 	1.0804264549965
scalar abilene_nodelay_network.client[3] 	downloads[3].real 	17999836
scalar abilene_nodelay_network.client[3] 	avg_time[3].real 	0
scalar abilene_nodelay_network.client[4] 	hdistance[4].real 	1.2251517587014
scalar abilene_nodelay_network.client[4] 	downloads[4].real 	18003910
scalar abilene_nodelay_network.client[4] 	avg_time[4].real 	0
scalar abilene_nodelay_network.client[5] 	hdistance[5].real 	1.3907882230398
scalar abilene_nodelay_network.client[5] 	downloads[5].real 	17998091
scalar abilene_nodelay_network.client[5] 	avg_time[5].real 	0
scalar abilene_nodelay_network.client[6] 	hdistance[6].real 	1.2384861243809
scalar abilene_nodelay_network.client[6] 	downloads[6].real 	18002800
scalar abilene_nodelay_network.client[6] 	avg_time[6].real 	0
scalar abilene_nodelay_network.client[7] 	hdistance[7].real 	1.0692814683423
scalar abilene_nodelay_network.client[7] 	downloads[7].real 	17996674
scalar abilene_nodelay_network.client[7] 	avg_time[7].real 	0
scalar abilene_nodelay_network.client[8] 	hdistance[8].real 	1.0431819811068
scalar abilene_nodelay_network.client[8] 	downloads[8].real 	17994890
scalar abilene_nodelay_network.client[8] 	avg_time[8].real 	0
scalar abilene_nodelay_network.client[9] 	hdistance[9].real 	1.1845287185585
scalar abilene_nodelay_network.client[9] 	downloads[9].real 	17998884
scalar abilene_nodelay_network.client[9] 	avg_time[9].real 	0
scalar abilene_nodelay_network.client[10] 	hdistance[10].real 	1.2416872568475
scalar abilene_nodelay_network.client[10] 	downloads[10].real 	17993609
scalar abilene_nodelay_network.client[10] 	avg_time[10].real 	0
