version 2
run General-12-20140902-15:40:13-27560
attr D costprobprodcorr0.01
attr F nrr
attr R lru
attr a 1
attr configname General
attr csize 1e3
attr ctlg 1e5
attr datetime 20140902-15:40:13
attr experiment General
attr inifile omnetpp.ini
attr iterationvars "$net=abilene_cost, $rep=14, $priceratiovalue=10, $weights=0.333_0.333_0.334, $lambda=100, $a=1, $ctlg=1e5, $F=nrr, $ttl=10, $D=costprobprodcorr0.01, $xi=1, $R=lru, $csize=1e3, $pricebits=0, $window=60, $variance=0.05, $mytime=1800"
attr iterationvars2 "$net=abilene_cost, $rep=14, $priceratiovalue=10, $weights=0.333_0.333_0.334, $lambda=100, $a=1, $ctlg=1e5, $F=nrr, $ttl=10, $D=costprobprodcorr0.01, $xi=1, $R=lru, $csize=1e3, $pricebits=0, $window=60, $variance=0.05, $mytime=1800, $repetition=0"
attr lambda 100
attr measurement "$net=abilene_cost, $rep=14, $priceratiovalue=10, $weights=0.333_0.333_0.334, $lambda=100, $a=1, $ctlg=1e5, $F=nrr, $ttl=10, $D=costprobprodcorr0.01, $xi=1, $R=lru, $csize=1e3, $pricebits=0, $window=60, $variance=0.05, $mytime=1800"
attr mytime 1800
attr net abilene_cost
attr network networks.${net=abilene_cost}_network
attr pricebits 0
attr priceratiovalue 10
attr processid 27560
attr rep 14
attr repetition 0
attr replication #0
attr resultdir results
attr runnumber 12
attr seedset 14
attr ttl 10
attr variance 0.05
attr weights 0.333_0.333_0.334
attr window 60
attr xi 1

scalar . 	a 	1
scalar . 	csize 	1e3
scalar . 	ctlg 	1e5
scalar . 	lambda 	100
scalar . 	mytime 	1800
scalar . 	pricebits 	0
scalar . 	priceratiovalue 	10
scalar . 	rep 	14
scalar . 	ttl 	10
scalar . 	variance 	0.05
scalar . 	window 	60
scalar . 	xi 	1
scalar abilene_cost_network.content_distribution 	repo-0 	4
scalar abilene_cost_network.content_distribution 	repo-1 	0
scalar abilene_cost_network.content_distribution 	repo-2 	1
scalar abilene_cost_network.content_distribution 	client-0 	10
scalar abilene_cost_network.content_distribution 	client-1 	0
scalar abilene_cost_network.content_distribution 	client-2 	3
scalar abilene_cost_network.content_distribution 	repo-0_card 	32960
scalar abilene_cost_network.content_distribution 	repo-0_price 	10
scalar abilene_cost_network.content_distribution 	repo-1_card 	33557
scalar abilene_cost_network.content_distribution 	repo-1_price 	1
scalar abilene_cost_network.content_distribution 	repo-2_card 	33483
scalar abilene_cost_network.content_distribution 	repo-2_price 	0
scalar abilene_cost_network.statistics 	repo_popularity[0] 	0.37649694892447
scalar abilene_cost_network.statistics 	repo_popularity[1] 	0.27930561233564
scalar abilene_cost_network.statistics 	repo_popularity[2] 	0.3441974387399
scalar abilene_cost_network.statistics 	stabilization_time 	36060
scalar abilene_cost_network.statistics 	p_hit 	0.12863930323823
scalar abilene_cost_network.statistics 	interests 	128636.63636364
scalar abilene_cost_network.statistics 	data 	79526
scalar abilene_cost_network.statistics 	hdistance 	2.2979479933538
scalar abilene_cost_network.statistics 	avg_time 	0.011233347643
scalar abilene_cost_network.statistics 	downloads 	533683
scalar abilene_cost_network.statistics 	total_cost 	851129
scalar abilene_cost_network.statistics 	total_replicas 	100000
scalar abilene_cost_network.statistics 	inner_hit 	0.34379210130358
scalar abilene_cost_network.statistics 	interests_sent 	540220
scalar abilene_cost_network.node[0].core_layer 	interests[0] 	272320
scalar abilene_cost_network.node[0].core_layer 	repo_load[0] 	90109
scalar abilene_cost_network.node[0].core_layer 	data[0] 	125327
scalar abilene_cost_network.node[0].core_layer 	repo_int[0] 	350207
scalar abilene_cost_network.node[0].content_store 	p_hit[0] 	0.19905992949471
scalar abilene_cost_network.node[0].content_store 	hits[0] 	54208
scalar abilene_cost_network.node[0].content_store 	misses[0] 	218112
scalar abilene_cost_network.node[0].content_store 	decision_yes[0] 	945
scalar abilene_cost_network.node[0].content_store 	decision_no[0] 	214491
scalar abilene_cost_network.node[0].content_store 	decision_ratio[0] 	0.004386453517518
scalar abilene_cost_network.node[0].content_store 	correction_factor[0] 	0.0027225701061802
scalar abilene_cost_network.node[0].content_store 	xi[0] 	1
scalar abilene_cost_network.node[1].core_layer 	interests[1] 	362543
scalar abilene_cost_network.node[1].core_layer 	repo_load[1] 	183996
scalar abilene_cost_network.node[1].core_layer 	data[1] 	157353
scalar abilene_cost_network.node[1].content_store 	p_hit[1] 	0.054539737355293
scalar abilene_cost_network.node[1].content_store 	hits[1] 	19773
scalar abilene_cost_network.node[1].content_store 	misses[1] 	342770
scalar abilene_cost_network.node[1].content_store 	decision_yes[1] 	1426
scalar abilene_cost_network.node[1].content_store 	decision_no[1] 	339923
scalar abilene_cost_network.node[1].content_store 	decision_ratio[1] 	0.0041775426323206
scalar abilene_cost_network.node[1].content_store 	correction_factor[1] 	0.0027225701061802
scalar abilene_cost_network.node[1].content_store 	xi[1] 	1
scalar abilene_cost_network.node[2].core_layer 	interests[2] 	247762
scalar abilene_cost_network.node[2].core_layer 	data[2] 	185437
scalar abilene_cost_network.node[2].content_store 	p_hit[2] 	0.25155996480493
scalar abilene_cost_network.node[2].content_store 	hits[2] 	62327
scalar abilene_cost_network.node[2].content_store 	misses[2] 	185435
scalar abilene_cost_network.node[2].content_store 	decision_yes[2] 	1441
scalar abilene_cost_network.node[2].content_store 	decision_no[2] 	183995
scalar abilene_cost_network.node[2].content_store 	decision_ratio[2] 	0.0077708751267284
scalar abilene_cost_network.node[2].content_store 	correction_factor[2] 	0.0027225701061802
scalar abilene_cost_network.node[2].content_store 	xi[2] 	1
scalar abilene_cost_network.node[3].core_layer 	interests[3] 	251305
scalar abilene_cost_network.node[3].core_layer 	data[3] 	233908
scalar abilene_cost_network.node[3].content_store 	p_hit[3] 	0.063767135552416
scalar abilene_cost_network.node[3].content_store 	hits[3] 	16025
scalar abilene_cost_network.node[3].content_store 	misses[3] 	235280
scalar abilene_cost_network.node[3].content_store 	decision_yes[3] 	2198
scalar abilene_cost_network.node[3].content_store 	decision_no[3] 	231709
scalar abilene_cost_network.node[3].content_store 	decision_ratio[3] 	0.0093968970573775
scalar abilene_cost_network.node[3].content_store 	correction_factor[3] 	0.0027225701061802
scalar abilene_cost_network.node[3].content_store 	xi[3] 	1
scalar abilene_cost_network.node[4].core_layer 	interests[4] 	97529
scalar abilene_cost_network.node[4].core_layer 	repo_load[4] 	76102
scalar abilene_cost_network.node[4].core_layer 	data[4] 	0
scalar abilene_cost_network.node[4].content_store 	p_hit[4] 	0.21969875626737
scalar abilene_cost_network.node[4].content_store 	hits[4] 	21427
scalar abilene_cost_network.node[4].content_store 	misses[4] 	76102
scalar abilene_cost_network.node[4].content_store 	decision_yes[4] 	2001
scalar abilene_cost_network.node[4].content_store 	decision_no[4] 	74101
scalar abilene_cost_network.node[4].content_store 	decision_ratio[4] 	0.026293658510946
scalar abilene_cost_network.node[4].content_store 	correction_factor[4] 	0.0027225701061802
scalar abilene_cost_network.node[4].content_store 	xi[4] 	1
scalar abilene_cost_network.node[5].core_layer 	interests[5] 	0
scalar abilene_cost_network.node[5].core_layer 	data[5] 	0
scalar abilene_cost_network.node[5].content_store 	p_hit[5] 	-nan
scalar abilene_cost_network.node[5].content_store 	hits[5] 	0
scalar abilene_cost_network.node[5].content_store 	misses[5] 	0
scalar abilene_cost_network.node[5].content_store 	decision_yes[5] 	0
scalar abilene_cost_network.node[5].content_store 	decision_no[5] 	0
scalar abilene_cost_network.node[5].content_store 	decision_ratio[5] 	0
scalar abilene_cost_network.node[5].content_store 	correction_factor[5] 	0.0027225701061802
scalar abilene_cost_network.node[5].content_store 	xi[5] 	1
scalar abilene_cost_network.node[6].core_layer 	interests[6] 	0
scalar abilene_cost_network.node[6].core_layer 	data[6] 	0
scalar abilene_cost_network.node[6].content_store 	p_hit[6] 	-nan
scalar abilene_cost_network.node[6].content_store 	hits[6] 	0
scalar abilene_cost_network.node[6].content_store 	misses[6] 	0
scalar abilene_cost_network.node[6].content_store 	decision_yes[6] 	0
scalar abilene_cost_network.node[6].content_store 	decision_no[6] 	0
scalar abilene_cost_network.node[6].content_store 	decision_ratio[6] 	0
scalar abilene_cost_network.node[6].content_store 	correction_factor[6] 	0.0027225701061802
scalar abilene_cost_network.node[6].content_store 	xi[6] 	1
scalar abilene_cost_network.node[7].core_layer 	interests[7] 	0
scalar abilene_cost_network.node[7].core_layer 	data[7] 	0
scalar abilene_cost_network.node[7].content_store 	p_hit[7] 	-nan
scalar abilene_cost_network.node[7].content_store 	hits[7] 	0
scalar abilene_cost_network.node[7].content_store 	misses[7] 	0
scalar abilene_cost_network.node[7].content_store 	decision_yes[7] 	0
scalar abilene_cost_network.node[7].content_store 	decision_no[7] 	0
scalar abilene_cost_network.node[7].content_store 	decision_ratio[7] 	0
scalar abilene_cost_network.node[7].content_store 	correction_factor[7] 	0.0027225701061802
scalar abilene_cost_network.node[7].content_store 	xi[7] 	1
scalar abilene_cost_network.node[8].core_layer 	interests[8] 	0
scalar abilene_cost_network.node[8].core_layer 	data[8] 	0
scalar abilene_cost_network.node[8].content_store 	p_hit[8] 	-nan
scalar abilene_cost_network.node[8].content_store 	hits[8] 	0
scalar abilene_cost_network.node[8].content_store 	misses[8] 	0
scalar abilene_cost_network.node[8].content_store 	decision_yes[8] 	0
scalar abilene_cost_network.node[8].content_store 	decision_no[8] 	0
scalar abilene_cost_network.node[8].content_store 	decision_ratio[8] 	0
scalar abilene_cost_network.node[8].content_store 	correction_factor[8] 	0.0027225701061802
scalar abilene_cost_network.node[8].content_store 	xi[8] 	1
scalar abilene_cost_network.node[9].core_layer 	interests[9] 	0
scalar abilene_cost_network.node[9].core_layer 	data[9] 	0
scalar abilene_cost_network.node[9].content_store 	p_hit[9] 	-nan
scalar abilene_cost_network.node[9].content_store 	hits[9] 	0
scalar abilene_cost_network.node[9].content_store 	misses[9] 	0
scalar abilene_cost_network.node[9].content_store 	decision_yes[9] 	0
scalar abilene_cost_network.node[9].content_store 	decision_no[9] 	0
scalar abilene_cost_network.node[9].content_store 	decision_ratio[9] 	0
scalar abilene_cost_network.node[9].content_store 	correction_factor[9] 	0.0027225701061802
scalar abilene_cost_network.node[9].content_store 	xi[9] 	1
scalar abilene_cost_network.node[10].core_layer 	interests[10] 	183544
scalar abilene_cost_network.node[10].core_layer 	data[10] 	172761
scalar abilene_cost_network.node[10].content_store 	p_hit[10] 	0.045030074532537
scalar abilene_cost_network.node[10].content_store 	hits[10] 	8265
scalar abilene_cost_network.node[10].content_store 	misses[10] 	175279
scalar abilene_cost_network.node[10].content_store 	decision_yes[10] 	769
scalar abilene_cost_network.node[10].content_store 	decision_no[10] 	171992
scalar abilene_cost_network.node[10].content_store 	decision_ratio[10] 	0.0044512361007403
scalar abilene_cost_network.node[10].content_store 	correction_factor[10] 	0.0027225701061802
scalar abilene_cost_network.node[10].content_store 	xi[10] 	1
scalar abilene_cost_network.client[0] 	hdistance[0] 	2.0615892994091
scalar abilene_cost_network.client[0] 	downloads[0] 	177336
scalar abilene_cost_network.client[0] 	avg_time[0] 	0.010828124229
scalar abilene_cost_network.client[0] 	interests_sent[0] 	180012
scalar abilene_cost_network.client[3] 	hdistance[3] 	2.5104477445163
scalar abilene_cost_network.client[3] 	downloads[3] 	178986
scalar abilene_cost_network.client[3] 	avg_time[3] 	0.010633982995
scalar abilene_cost_network.client[3] 	interests_sent[3] 	180329
scalar abilene_cost_network.client[10] 	hdistance[10] 	2.321806936136
scalar abilene_cost_network.client[10] 	downloads[10] 	177361
scalar abilene_cost_network.client[10] 	avg_time[10] 	0.012237935707
scalar abilene_cost_network.client[10] 	interests_sent[10] 	179879
