version 2
run General-8-20140902-15:56:05-17325
attr D costprobprodcorr0.01
attr F nrr
attr R lru
attr a 1
attr configname General
attr csize 1e3
attr ctlg 1e5
attr datetime 20140902-15:56:05
attr experiment General
attr inifile omnetpp.ini
attr iterationvars "$net=abilene_cost, $rep=3, $priceratiovalue=10, $weights=0.333_0.333_0.334, $lambda=100, $a=1, $ctlg=1e5, $F=nrr, $ttl=10, $D=costprobprodcorr0.01, $xi=1, $R=lru, $csize=1e3, $pricebits=0, $window=60, $variance=0.05, $mytime=1800"
attr iterationvars2 "$net=abilene_cost, $rep=3, $priceratiovalue=10, $weights=0.333_0.333_0.334, $lambda=100, $a=1, $ctlg=1e5, $F=nrr, $ttl=10, $D=costprobprodcorr0.01, $xi=1, $R=lru, $csize=1e3, $pricebits=0, $window=60, $variance=0.05, $mytime=1800, $repetition=0"
attr lambda 100
attr measurement "$net=abilene_cost, $rep=3, $priceratiovalue=10, $weights=0.333_0.333_0.334, $lambda=100, $a=1, $ctlg=1e5, $F=nrr, $ttl=10, $D=costprobprodcorr0.01, $xi=1, $R=lru, $csize=1e3, $pricebits=0, $window=60, $variance=0.05, $mytime=1800"
attr mytime 1800
attr net abilene_cost
attr network networks.${net=abilene_cost}_network
attr pricebits 0
attr priceratiovalue 10
attr processid 17325
attr rep 3
attr repetition 0
attr replication #0
attr resultdir results
attr runnumber 8
attr seedset 3
attr ttl 10
attr variance 0.05
attr weights 0.333_0.333_0.334
attr window 60
attr xi 1

scalar . 	a 	1
scalar . 	csize 	1e3
scalar . 	ctlg 	1e5
scalar . 	lambda 	100
scalar . 	mytime 	1800
scalar . 	pricebits 	0
scalar . 	priceratiovalue 	10
scalar . 	rep 	3
scalar . 	ttl 	10
scalar . 	variance 	0.05
scalar . 	window 	60
scalar . 	xi 	1
scalar abilene_cost_network.content_distribution 	repo-0 	9
scalar abilene_cost_network.content_distribution 	repo-1 	4
scalar abilene_cost_network.content_distribution 	repo-2 	0
scalar abilene_cost_network.content_distribution 	client-0 	9
scalar abilene_cost_network.content_distribution 	client-1 	0
scalar abilene_cost_network.content_distribution 	client-2 	1
scalar abilene_cost_network.content_distribution 	repo-0_card 	33498
scalar abilene_cost_network.content_distribution 	repo-0_price 	0
scalar abilene_cost_network.content_distribution 	repo-1_card 	33168
scalar abilene_cost_network.content_distribution 	repo-1_price 	10
scalar abilene_cost_network.content_distribution 	repo-2_card 	33334
scalar abilene_cost_network.content_distribution 	repo-2_price 	1
scalar abilene_cost_network.statistics 	repo_popularity[0] 	0.34820484875244
scalar abilene_cost_network.statistics 	repo_popularity[1] 	0.25519349814637
scalar abilene_cost_network.statistics 	repo_popularity[2] 	0.3966016531012
scalar abilene_cost_network.statistics 	stabilization_time 	36060
scalar abilene_cost_network.statistics 	p_hit 	0.14194383167715
scalar abilene_cost_network.statistics 	interests 	123796.72727273
scalar abilene_cost_network.statistics 	data 	74798
scalar abilene_cost_network.statistics 	hdistance 	2.1777968562623
scalar abilene_cost_network.statistics 	avg_time 	0.009939157072
scalar abilene_cost_network.statistics 	downloads 	534853
scalar abilene_cost_network.statistics 	total_cost 	782751
scalar abilene_cost_network.statistics 	total_replicas 	100000
scalar abilene_cost_network.statistics 	inner_hit 	0.36200974847294
scalar abilene_cost_network.statistics 	interests_sent 	538989
scalar abilene_cost_network.node[0].core_layer 	interests[0] 	293536
scalar abilene_cost_network.node[0].core_layer 	repo_load[0] 	85671
scalar abilene_cost_network.node[0].core_layer 	data[0] 	105393
scalar abilene_cost_network.node[0].core_layer 	repo_int[0] 	341231
scalar abilene_cost_network.node[0].content_store 	p_hit[0] 	0.34754169846288
scalar abilene_cost_network.node[0].content_store 	hits[0] 	102016
scalar abilene_cost_network.node[0].content_store 	misses[0] 	191520
scalar abilene_cost_network.node[0].content_store 	decision_yes[0] 	940
scalar abilene_cost_network.node[0].content_store 	decision_no[0] 	190124
scalar abilene_cost_network.node[0].content_store 	decision_ratio[0] 	0.0049198174433698
scalar abilene_cost_network.node[0].content_store 	correction_factor[0] 	0.0027225701061802
scalar abilene_cost_network.node[0].content_store 	xi[0] 	1
scalar abilene_cost_network.node[1].core_layer 	interests[1] 	224856
scalar abilene_cost_network.node[1].core_layer 	data[1] 	208739
scalar abilene_cost_network.node[1].content_store 	p_hit[1] 	0.061821788166649
scalar abilene_cost_network.node[1].content_store 	hits[1] 	13901
scalar abilene_cost_network.node[1].content_store 	misses[1] 	210955
scalar abilene_cost_network.node[1].content_store 	decision_yes[1] 	1329
scalar abilene_cost_network.node[1].content_store 	decision_no[1] 	207410
scalar abilene_cost_network.node[1].content_store 	decision_ratio[1] 	0.0063668025620512
scalar abilene_cost_network.node[1].content_store 	correction_factor[1] 	0.0027225701061802
scalar abilene_cost_network.node[1].content_store 	xi[1] 	1
scalar abilene_cost_network.node[2].core_layer 	interests[2] 	107816
scalar abilene_cost_network.node[2].core_layer 	data[2] 	97666
scalar abilene_cost_network.node[2].content_store 	p_hit[2] 	0.093937819989612
scalar abilene_cost_network.node[2].content_store 	hits[2] 	10128
scalar abilene_cost_network.node[2].content_store 	misses[2] 	97688
scalar abilene_cost_network.node[2].content_store 	decision_yes[2] 	1912
scalar abilene_cost_network.node[2].content_store 	decision_no[2] 	95754
scalar abilene_cost_network.node[2].content_store 	decision_ratio[2] 	0.019576925439764
scalar abilene_cost_network.node[2].content_store 	correction_factor[2] 	0.0027225701061802
scalar abilene_cost_network.node[2].content_store 	xi[2] 	1
scalar abilene_cost_network.node[3].core_layer 	interests[3] 	90487
scalar abilene_cost_network.node[3].core_layer 	data[3] 	79396
scalar abilene_cost_network.node[3].content_store 	p_hit[3] 	0.12258114425277
scalar abilene_cost_network.node[3].content_store 	hits[3] 	11092
scalar abilene_cost_network.node[3].content_store 	misses[3] 	79395
scalar abilene_cost_network.node[3].content_store 	decision_yes[3] 	1895
scalar abilene_cost_network.node[3].content_store 	decision_no[3] 	77501
scalar abilene_cost_network.node[3].content_store 	decision_ratio[3] 	0.023867701143634
scalar abilene_cost_network.node[3].content_store 	correction_factor[3] 	0.0027225701061802
scalar abilene_cost_network.node[3].content_store 	xi[3] 	1
scalar abilene_cost_network.node[4].core_layer 	interests[4] 	79396
scalar abilene_cost_network.node[4].core_layer 	repo_load[4] 	69708
scalar abilene_cost_network.node[4].core_layer 	data[4] 	0
scalar abilene_cost_network.node[4].content_store 	p_hit[4] 	0.1220212605169
scalar abilene_cost_network.node[4].content_store 	hits[4] 	9688
scalar abilene_cost_network.node[4].content_store 	misses[4] 	69708
scalar abilene_cost_network.node[4].content_store 	decision_yes[4] 	1865
scalar abilene_cost_network.node[4].content_store 	decision_no[4] 	67843
scalar abilene_cost_network.node[4].content_store 	decision_ratio[4] 	0.026754461467837
scalar abilene_cost_network.node[4].content_store 	correction_factor[4] 	0.0027225701061802
scalar abilene_cost_network.node[4].content_store 	xi[4] 	1
scalar abilene_cost_network.node[5].core_layer 	interests[5] 	0
scalar abilene_cost_network.node[5].core_layer 	data[5] 	0
scalar abilene_cost_network.node[5].content_store 	p_hit[5] 	-nan
scalar abilene_cost_network.node[5].content_store 	hits[5] 	0
scalar abilene_cost_network.node[5].content_store 	misses[5] 	0
scalar abilene_cost_network.node[5].content_store 	decision_yes[5] 	0
scalar abilene_cost_network.node[5].content_store 	decision_no[5] 	0
scalar abilene_cost_network.node[5].content_store 	decision_ratio[5] 	0
scalar abilene_cost_network.node[5].content_store 	correction_factor[5] 	0.0027225701061802
scalar abilene_cost_network.node[5].content_store 	xi[5] 	1
scalar abilene_cost_network.node[6].core_layer 	interests[6] 	0
scalar abilene_cost_network.node[6].core_layer 	data[6] 	0
scalar abilene_cost_network.node[6].content_store 	p_hit[6] 	-nan
scalar abilene_cost_network.node[6].content_store 	hits[6] 	0
scalar abilene_cost_network.node[6].content_store 	misses[6] 	0
scalar abilene_cost_network.node[6].content_store 	decision_yes[6] 	0
scalar abilene_cost_network.node[6].content_store 	decision_no[6] 	0
scalar abilene_cost_network.node[6].content_store 	decision_ratio[6] 	0
scalar abilene_cost_network.node[6].content_store 	correction_factor[6] 	0.0027225701061802
scalar abilene_cost_network.node[6].content_store 	xi[6] 	1
scalar abilene_cost_network.node[7].core_layer 	interests[7] 	0
scalar abilene_cost_network.node[7].core_layer 	data[7] 	0
scalar abilene_cost_network.node[7].content_store 	p_hit[7] 	-nan
scalar abilene_cost_network.node[7].content_store 	hits[7] 	0
scalar abilene_cost_network.node[7].content_store 	misses[7] 	0
scalar abilene_cost_network.node[7].content_store 	decision_yes[7] 	0
scalar abilene_cost_network.node[7].content_store 	decision_no[7] 	0
scalar abilene_cost_network.node[7].content_store 	decision_ratio[7] 	0
scalar abilene_cost_network.node[7].content_store 	correction_factor[7] 	0.0027225701061802
scalar abilene_cost_network.node[7].content_store 	xi[7] 	1
scalar abilene_cost_network.node[8].core_layer 	interests[8] 	44407
scalar abilene_cost_network.node[8].core_layer 	data[8] 	33593
scalar abilene_cost_network.node[8].content_store 	p_hit[8] 	0.24354268471187
scalar abilene_cost_network.node[8].content_store 	hits[8] 	10815
scalar abilene_cost_network.node[8].content_store 	misses[8] 	33592
scalar abilene_cost_network.node[8].content_store 	decision_yes[8] 	665
scalar abilene_cost_network.node[8].content_store 	decision_no[8] 	32928
scalar abilene_cost_network.node[8].content_store 	decision_ratio[8] 	0.019795790789748
scalar abilene_cost_network.node[8].content_store 	correction_factor[8] 	0.0027225701061802
scalar abilene_cost_network.node[8].content_store 	xi[8] 	1
scalar abilene_cost_network.node[9].core_layer 	interests[9] 	310214
scalar abilene_cost_network.node[9].core_layer 	repo_load[9] 	185852
scalar abilene_cost_network.node[9].core_layer 	data[9] 	109552
scalar abilene_cost_network.node[9].content_store 	p_hit[9] 	0.042838169779572
scalar abilene_cost_network.node[9].content_store 	hits[9] 	13289
scalar abilene_cost_network.node[9].content_store 	misses[9] 	296925
scalar abilene_cost_network.node[9].content_store 	decision_yes[9] 	689
scalar abilene_cost_network.node[9].content_store 	decision_no[9] 	294715
scalar abilene_cost_network.node[9].content_store 	decision_ratio[9] 	0.0023323990196477
scalar abilene_cost_network.node[9].content_store 	correction_factor[9] 	0.0027225701061802
scalar abilene_cost_network.node[9].content_store 	xi[9] 	1
scalar abilene_cost_network.node[10].core_layer 	interests[10] 	211052
scalar abilene_cost_network.node[10].core_layer 	data[10] 	188439
scalar abilene_cost_network.node[10].content_store 	p_hit[10] 	0.10596914504482
scalar abilene_cost_network.node[10].content_store 	hits[10] 	22365
scalar abilene_cost_network.node[10].content_store 	misses[10] 	188687
scalar abilene_cost_network.node[10].content_store 	decision_yes[10] 	67
scalar abilene_cost_network.node[10].content_store 	decision_no[10] 	188372
scalar abilene_cost_network.node[10].content_store 	decision_ratio[10] 	0.00035555272528511
scalar abilene_cost_network.node[10].content_store 	correction_factor[10] 	0.0027225701061802
scalar abilene_cost_network.node[10].content_store 	xi[10] 	1
scalar abilene_cost_network.client[0] 	hdistance[0] 	2.1457004409231
scalar abilene_cost_network.client[0] 	downloads[0] 	178716
scalar abilene_cost_network.client[0] 	avg_time[0] 	0.008919342919
scalar abilene_cost_network.client[0] 	interests_sent[0] 	179172
scalar abilene_cost_network.client[1] 	hdistance[1] 	2.3092069320927
scalar abilene_cost_network.client[1] 	downloads[1] 	177551
scalar abilene_cost_network.client[1] 	avg_time[1] 	0.011565549761
scalar abilene_cost_network.client[1] 	interests_sent[1] 	179710
scalar abilene_cost_network.client[9] 	hdistance[9] 	2.0784831957712
scalar abilene_cost_network.client[9] 	downloads[9] 	178586
scalar abilene_cost_network.client[9] 	avg_time[9] 	0.009332578536
scalar abilene_cost_network.client[9] 	interests_sent[9] 	180107
