version 2
run General-4-20140902-15:22:40-27543
attr D costprobprodcorr0.01
attr F nrr
attr R lru
attr a 1
attr configname General
attr csize 1e3
attr ctlg 1e5
attr datetime 20140902-15:22:40
attr experiment General
attr inifile omnetpp.ini
attr iterationvars "$net=abilene_cost, $rep=12, $priceratiovalue=10, $weights=0.333_0.333_0.334, $lambda=100, $a=1, $ctlg=1e5, $F=nrr, $ttl=10, $D=costprobprodcorr0.01, $xi=1, $R=lru, $csize=1e3, $pricebits=0, $window=60, $variance=0.05, $mytime=1800"
attr iterationvars2 "$net=abilene_cost, $rep=12, $priceratiovalue=10, $weights=0.333_0.333_0.334, $lambda=100, $a=1, $ctlg=1e5, $F=nrr, $ttl=10, $D=costprobprodcorr0.01, $xi=1, $R=lru, $csize=1e3, $pricebits=0, $window=60, $variance=0.05, $mytime=1800, $repetition=0"
attr lambda 100
attr measurement "$net=abilene_cost, $rep=12, $priceratiovalue=10, $weights=0.333_0.333_0.334, $lambda=100, $a=1, $ctlg=1e5, $F=nrr, $ttl=10, $D=costprobprodcorr0.01, $xi=1, $R=lru, $csize=1e3, $pricebits=0, $window=60, $variance=0.05, $mytime=1800"
attr mytime 1800
attr net abilene_cost
attr network networks.${net=abilene_cost}_network
attr pricebits 0
attr priceratiovalue 10
attr processid 27543
attr rep 12
attr repetition 0
attr replication #0
attr resultdir results
attr runnumber 4
attr seedset 12
attr ttl 10
attr variance 0.05
attr weights 0.333_0.333_0.334
attr window 60
attr xi 1

scalar . 	a 	1
scalar . 	csize 	1e3
scalar . 	ctlg 	1e5
scalar . 	lambda 	100
scalar . 	mytime 	1800
scalar . 	pricebits 	0
scalar . 	priceratiovalue 	10
scalar . 	rep 	12
scalar . 	ttl 	10
scalar . 	variance 	0.05
scalar . 	window 	60
scalar . 	xi 	1
scalar abilene_cost_network.content_distribution 	repo-0 	5
scalar abilene_cost_network.content_distribution 	repo-1 	6
scalar abilene_cost_network.content_distribution 	repo-2 	10
scalar abilene_cost_network.content_distribution 	client-0 	3
scalar abilene_cost_network.content_distribution 	client-1 	10
scalar abilene_cost_network.content_distribution 	client-2 	5
scalar abilene_cost_network.content_distribution 	repo-0_card 	33376
scalar abilene_cost_network.content_distribution 	repo-0_price 	1
scalar abilene_cost_network.content_distribution 	repo-1_card 	33438
scalar abilene_cost_network.content_distribution 	repo-1_price 	10
scalar abilene_cost_network.content_distribution 	repo-2_card 	33186
scalar abilene_cost_network.content_distribution 	repo-2_price 	0
scalar abilene_cost_network.statistics 	repo_popularity[0] 	0.35833076798376
scalar abilene_cost_network.statistics 	repo_popularity[1] 	0.34599129903999
scalar abilene_cost_network.statistics 	repo_popularity[2] 	0.29567793297627
scalar abilene_cost_network.statistics 	stabilization_time 	36060
scalar abilene_cost_network.statistics 	p_hit 	0.12935972012688
scalar abilene_cost_network.statistics 	interests 	150405.81818182
scalar abilene_cost_network.statistics 	data 	101298.09090909
scalar abilene_cost_network.statistics 	hdistance 	2.690135739392
scalar abilene_cost_network.statistics 	avg_time 	0.012934068244
scalar abilene_cost_network.statistics 	downloads 	534818
scalar abilene_cost_network.statistics 	total_cost 	868740
scalar abilene_cost_network.statistics 	total_replicas 	100000
scalar abilene_cost_network.statistics 	inner_hit 	0.40260612021286
scalar abilene_cost_network.statistics 	interests_sent 	540183
scalar abilene_cost_network.node[0].core_layer 	interests[0] 	0
scalar abilene_cost_network.node[0].core_layer 	data[0] 	0
scalar abilene_cost_network.node[0].core_layer 	repo_int[0] 	319497
scalar abilene_cost_network.node[0].content_store 	p_hit[0] 	-nan
scalar abilene_cost_network.node[0].content_store 	hits[0] 	0
scalar abilene_cost_network.node[0].content_store 	misses[0] 	0
scalar abilene_cost_network.node[0].content_store 	decision_yes[0] 	0
scalar abilene_cost_network.node[0].content_store 	decision_no[0] 	0
scalar abilene_cost_network.node[0].content_store 	decision_ratio[0] 	0
scalar abilene_cost_network.node[0].content_store 	correction_factor[0] 	0.0027225701061802
scalar abilene_cost_network.node[0].content_store 	xi[0] 	1
scalar abilene_cost_network.node[1].core_layer 	interests[1] 	181572
scalar abilene_cost_network.node[1].core_layer 	data[1] 	173765
scalar abilene_cost_network.node[1].content_store 	p_hit[1] 	0.04299671755557
scalar abilene_cost_network.node[1].content_store 	hits[1] 	7807
scalar abilene_cost_network.node[1].content_store 	misses[1] 	173765
scalar abilene_cost_network.node[1].content_store 	decision_yes[1] 	67
scalar abilene_cost_network.node[1].content_store 	decision_no[1] 	173698
scalar abilene_cost_network.node[1].content_store 	decision_ratio[1] 	0.00038557822346272
scalar abilene_cost_network.node[1].content_store 	correction_factor[1] 	0.0027225701061802
scalar abilene_cost_network.node[1].content_store 	xi[1] 	1
scalar abilene_cost_network.node[2].core_layer 	interests[2] 	199226
scalar abilene_cost_network.node[2].core_layer 	data[2] 	164969
scalar abilene_cost_network.node[2].content_store 	p_hit[2] 	0.17194040938432
scalar abilene_cost_network.node[2].content_store 	hits[2] 	34255
scalar abilene_cost_network.node[2].content_store 	misses[2] 	164971
scalar abilene_cost_network.node[2].content_store 	decision_yes[2] 	66
scalar abilene_cost_network.node[2].content_store 	decision_no[2] 	164903
scalar abilene_cost_network.node[2].content_store 	decision_ratio[2] 	0.00040007516563718
scalar abilene_cost_network.node[2].content_store 	correction_factor[2] 	0.0027225701061802
scalar abilene_cost_network.node[2].content_store 	xi[2] 	1
scalar abilene_cost_network.node[3].core_layer 	interests[3] 	290111
scalar abilene_cost_network.node[3].core_layer 	data[3] 	256935
scalar abilene_cost_network.node[3].content_store 	p_hit[3] 	0.10589050397951
scalar abilene_cost_network.node[3].content_store 	hits[3] 	30720
scalar abilene_cost_network.node[3].content_store 	misses[3] 	259391
scalar abilene_cost_network.node[3].content_store 	decision_yes[3] 	797
scalar abilene_cost_network.node[3].content_store 	decision_no[3] 	256138
scalar abilene_cost_network.node[3].content_store 	decision_ratio[3] 	0.0031019518555277
scalar abilene_cost_network.node[3].content_store 	correction_factor[3] 	0.0027225701061802
scalar abilene_cost_network.node[3].content_store 	xi[3] 	1
scalar abilene_cost_network.node[4].core_layer 	interests[4] 	141683
scalar abilene_cost_network.node[4].core_layer 	data[4] 	133866
scalar abilene_cost_network.node[4].content_store 	p_hit[4] 	0.055172462469033
scalar abilene_cost_network.node[4].content_store 	hits[4] 	7817
scalar abilene_cost_network.node[4].content_store 	misses[4] 	133866
scalar abilene_cost_network.node[4].content_store 	decision_yes[4] 	145
scalar abilene_cost_network.node[4].content_store 	decision_no[4] 	133721
scalar abilene_cost_network.node[4].content_store 	decision_ratio[4] 	0.0010831727249638
scalar abilene_cost_network.node[4].content_store 	correction_factor[4] 	0.0027225701061802
scalar abilene_cost_network.node[4].content_store 	xi[4] 	1
scalar abilene_cost_network.node[5].core_layer 	interests[5] 	255024
scalar abilene_cost_network.node[5].core_layer 	repo_load[5] 	82430
scalar abilene_cost_network.node[5].core_layer 	data[5] 	103873
scalar abilene_cost_network.node[5].content_store 	p_hit[5] 	0.26666901938641
scalar abilene_cost_network.node[5].content_store 	hits[5] 	68007
scalar abilene_cost_network.node[5].content_store 	misses[5] 	187017
scalar abilene_cost_network.node[5].content_store 	decision_yes[5] 	1070
scalar abilene_cost_network.node[5].content_store 	decision_no[5] 	185233
scalar abilene_cost_network.node[5].content_store 	decision_ratio[5] 	0.0057433320987853
scalar abilene_cost_network.node[5].content_store 	correction_factor[5] 	0.0027225701061802
scalar abilene_cost_network.node[5].content_store 	xi[5] 	1
scalar abilene_cost_network.node[6].core_layer 	interests[6] 	116651
scalar abilene_cost_network.node[6].core_layer 	repo_load[6] 	78631
scalar abilene_cost_network.node[6].core_layer 	data[6] 	0
scalar abilene_cost_network.node[6].content_store 	p_hit[6] 	0.32592948195901
scalar abilene_cost_network.node[6].content_store 	hits[6] 	38020
scalar abilene_cost_network.node[6].content_store 	misses[6] 	78631
scalar abilene_cost_network.node[6].content_store 	decision_yes[6] 	2179
scalar abilene_cost_network.node[6].content_store 	decision_no[6] 	76452
scalar abilene_cost_network.node[6].content_store 	decision_ratio[6] 	0.027711716752935
scalar abilene_cost_network.node[6].content_store 	correction_factor[6] 	0.0027225701061802
scalar abilene_cost_network.node[6].content_store 	xi[6] 	1
scalar abilene_cost_network.node[7].core_layer 	interests[7] 	84217
scalar abilene_cost_network.node[7].core_layer 	data[7] 	72095
scalar abilene_cost_network.node[7].content_store 	p_hit[7] 	0.14030421411354
scalar abilene_cost_network.node[7].content_store 	hits[7] 	11816
scalar abilene_cost_network.node[7].content_store 	misses[7] 	72401
scalar abilene_cost_network.node[7].content_store 	decision_yes[7] 	1395
scalar abilene_cost_network.node[7].content_store 	decision_no[7] 	70700
scalar abilene_cost_network.node[7].content_store 	decision_ratio[7] 	0.019349469450031
scalar abilene_cost_network.node[7].content_store 	correction_factor[7] 	0.0027225701061802
scalar abilene_cost_network.node[7].content_store 	xi[7] 	1
scalar abilene_cost_network.node[8].core_layer 	interests[8] 	50035
scalar abilene_cost_network.node[8].core_layer 	data[8] 	42848
scalar abilene_cost_network.node[8].content_store 	p_hit[8] 	0.14363945238333
scalar abilene_cost_network.node[8].content_store 	hits[8] 	7187
scalar abilene_cost_network.node[8].content_store 	misses[8] 	42848
scalar abilene_cost_network.node[8].content_store 	decision_yes[8] 	669
scalar abilene_cost_network.node[8].content_store 	decision_no[8] 	42179
scalar abilene_cost_network.node[8].content_store 	decision_ratio[8] 	0.015613330843913
scalar abilene_cost_network.node[8].content_store 	correction_factor[8] 	0.0027225701061802
scalar abilene_cost_network.node[8].content_store 	xi[8] 	1
scalar abilene_cost_network.node[9].core_layer 	interests[9] 	49926
scalar abilene_cost_network.node[9].core_layer 	data[9] 	45734
scalar abilene_cost_network.node[9].content_store 	p_hit[9] 	0.083964267115331
scalar abilene_cost_network.node[9].content_store 	hits[9] 	4192
scalar abilene_cost_network.node[9].content_store 	misses[9] 	45734
scalar abilene_cost_network.node[9].content_store 	decision_yes[9] 	684
scalar abilene_cost_network.node[9].content_store 	decision_no[9] 	45050
scalar abilene_cost_network.node[9].content_store 	decision_ratio[9] 	0.01495605020335
scalar abilene_cost_network.node[9].content_store 	correction_factor[9] 	0.0027225701061802
scalar abilene_cost_network.node[9].content_store 	xi[9] 	1
scalar abilene_cost_network.node[10].core_layer 	interests[10] 	286019
scalar abilene_cost_network.node[10].core_layer 	repo_load[10] 	158436
scalar abilene_cost_network.node[10].core_layer 	data[10] 	120194
scalar abilene_cost_network.node[10].content_store 	p_hit[10] 	0.014684339152294
scalar abilene_cost_network.node[10].content_store 	hits[10] 	4200
scalar abilene_cost_network.node[10].content_store 	misses[10] 	281819
scalar abilene_cost_network.node[10].content_store 	decision_yes[10] 	727
scalar abilene_cost_network.node[10].content_store 	decision_no[10] 	277903
scalar abilene_cost_network.node[10].content_store 	decision_ratio[10] 	0.0026091949897714
scalar abilene_cost_network.node[10].content_store 	correction_factor[10] 	0.0027225701061802
scalar abilene_cost_network.node[10].content_store 	xi[10] 	1
scalar abilene_cost_network.client[3] 	hdistance[3] 	2.5916554659499
scalar abilene_cost_network.client[3] 	downloads[3] 	178560
scalar abilene_cost_network.client[3] 	avg_time[3] 	0.011823852293
scalar abilene_cost_network.client[3] 	interests_sent[3] 	180022
scalar abilene_cost_network.client[5] 	hdistance[5] 	2.4383431333826
scalar abilene_cost_network.client[5] 	downloads[5] 	179761
scalar abilene_cost_network.client[5] 	avg_time[5] 	0.009750698952
scalar abilene_cost_network.client[5] 	interests_sent[5] 	180475
scalar abilene_cost_network.client[10] 	hdistance[10] 	3.0404086188434
scalar abilene_cost_network.client[10] 	downloads[10] 	176497
scalar abilene_cost_network.client[10] 	avg_time[10] 	0.017227653488
scalar abilene_cost_network.client[10] 	interests_sent[10] 	179686
