version 2
run General-0-20140902-15:45:45-17282
attr D costprobprodcorr0.01
attr F nrr
attr R lru
attr a 1
attr configname General
attr csize 1e3
attr ctlg 1e5
attr datetime 20140902-15:45:45
attr experiment General
attr inifile omnetpp.ini
attr iterationvars "$net=abilene_cost, $rep=1, $priceratiovalue=10, $weights=0.333_0.333_0.334, $lambda=100, $a=1, $ctlg=1e5, $F=nrr, $ttl=10, $D=costprobprodcorr0.01, $xi=1, $R=lru, $csize=1e3, $pricebits=0, $window=60, $variance=0.05, $mytime=1800"
attr iterationvars2 "$net=abilene_cost, $rep=1, $priceratiovalue=10, $weights=0.333_0.333_0.334, $lambda=100, $a=1, $ctlg=1e5, $F=nrr, $ttl=10, $D=costprobprodcorr0.01, $xi=1, $R=lru, $csize=1e3, $pricebits=0, $window=60, $variance=0.05, $mytime=1800, $repetition=0"
attr lambda 100
attr measurement "$net=abilene_cost, $rep=1, $priceratiovalue=10, $weights=0.333_0.333_0.334, $lambda=100, $a=1, $ctlg=1e5, $F=nrr, $ttl=10, $D=costprobprodcorr0.01, $xi=1, $R=lru, $csize=1e3, $pricebits=0, $window=60, $variance=0.05, $mytime=1800"
attr mytime 1800
attr net abilene_cost
attr network networks.${net=abilene_cost}_network
attr pricebits 0
attr priceratiovalue 10
attr processid 17282
attr rep 1
attr repetition 0
attr replication #0
attr resultdir results
attr runnumber 0
attr seedset 1
attr ttl 10
attr variance 0.05
attr weights 0.333_0.333_0.334
attr window 60
attr xi 1

scalar . 	a 	1
scalar . 	csize 	1e3
scalar . 	ctlg 	1e5
scalar . 	lambda 	100
scalar . 	mytime 	1800
scalar . 	pricebits 	0
scalar . 	priceratiovalue 	10
scalar . 	rep 	1
scalar . 	ttl 	10
scalar . 	variance 	0.05
scalar . 	window 	60
scalar . 	xi 	1
scalar abilene_cost_network.content_distribution 	repo-0 	10
scalar abilene_cost_network.content_distribution 	repo-1 	7
scalar abilene_cost_network.content_distribution 	repo-2 	5
scalar abilene_cost_network.content_distribution 	client-0 	8
scalar abilene_cost_network.content_distribution 	client-1 	7
scalar abilene_cost_network.content_distribution 	client-2 	2
scalar abilene_cost_network.content_distribution 	repo-0_card 	33397
scalar abilene_cost_network.content_distribution 	repo-0_price 	0
scalar abilene_cost_network.content_distribution 	repo-1_card 	33041
scalar abilene_cost_network.content_distribution 	repo-1_price 	10
scalar abilene_cost_network.content_distribution 	repo-2_card 	33562
scalar abilene_cost_network.content_distribution 	repo-2_price 	1
scalar abilene_cost_network.statistics 	repo_popularity[0] 	0.36106327575467
scalar abilene_cost_network.statistics 	repo_popularity[1] 	0.3490006524958
scalar abilene_cost_network.statistics 	repo_popularity[2] 	0.28993607174955
scalar abilene_cost_network.statistics 	stabilization_time 	36060
scalar abilene_cost_network.statistics 	p_hit 	0.12556151396102
scalar abilene_cost_network.statistics 	interests 	133263.90909091
scalar abilene_cost_network.statistics 	data 	84186.909090909
scalar abilene_cost_network.statistics 	hdistance 	2.3921506614753
scalar abilene_cost_network.statistics 	avg_time 	0.01171284651
scalar abilene_cost_network.statistics 	downloads 	535536
scalar abilene_cost_network.statistics 	total_cost 	925125
scalar abilene_cost_network.statistics 	total_replicas 	100000
scalar abilene_cost_network.statistics 	inner_hit 	0.34738654357504
scalar abilene_cost_network.statistics 	interests_sent 	539850
scalar abilene_cost_network.node[0].core_layer 	interests[0] 	0
scalar abilene_cost_network.node[0].core_layer 	data[0] 	0
scalar abilene_cost_network.node[0].core_layer 	repo_int[0] 	349498
scalar abilene_cost_network.node[0].content_store 	p_hit[0] 	-nan
scalar abilene_cost_network.node[0].content_store 	hits[0] 	0
scalar abilene_cost_network.node[0].content_store 	misses[0] 	0
scalar abilene_cost_network.node[0].content_store 	decision_yes[0] 	0
scalar abilene_cost_network.node[0].content_store 	decision_no[0] 	0
scalar abilene_cost_network.node[0].content_store 	decision_ratio[0] 	0
scalar abilene_cost_network.node[0].content_store 	correction_factor[0] 	0.0027225701061802
scalar abilene_cost_network.node[0].content_store 	xi[0] 	1
scalar abilene_cost_network.node[1].core_layer 	interests[1] 	64393
scalar abilene_cost_network.node[1].core_layer 	data[1] 	64393
scalar abilene_cost_network.node[1].content_store 	p_hit[1] 	0
scalar abilene_cost_network.node[1].content_store 	hits[1] 	0
scalar abilene_cost_network.node[1].content_store 	misses[1] 	64393
scalar abilene_cost_network.node[1].content_store 	decision_yes[1] 	0
scalar abilene_cost_network.node[1].content_store 	decision_no[1] 	64393
scalar abilene_cost_network.node[1].content_store 	decision_ratio[1] 	0
scalar abilene_cost_network.node[1].content_store 	correction_factor[1] 	0.0027225701061802
scalar abilene_cost_network.node[1].content_store 	xi[1] 	1
scalar abilene_cost_network.node[2].core_layer 	interests[2] 	194943
scalar abilene_cost_network.node[2].core_layer 	data[2] 	180888
scalar abilene_cost_network.node[2].content_store 	p_hit[2] 	0.06239772651493
scalar abilene_cost_network.node[2].content_store 	hits[2] 	12164
scalar abilene_cost_network.node[2].content_store 	misses[2] 	182779
scalar abilene_cost_network.node[2].content_store 	decision_yes[2] 	776
scalar abilene_cost_network.node[2].content_store 	decision_no[2] 	180112
scalar abilene_cost_network.node[2].content_store 	decision_ratio[2] 	0.0042899473707488
scalar abilene_cost_network.node[2].content_store 	correction_factor[2] 	0.0027225701061802
scalar abilene_cost_network.node[2].content_store 	xi[2] 	1
scalar abilene_cost_network.node[3].core_layer 	interests[3] 	98555
scalar abilene_cost_network.node[3].core_layer 	data[3] 	88892
scalar abilene_cost_network.node[3].content_store 	p_hit[3] 	0.097935163106895
scalar abilene_cost_network.node[3].content_store 	hits[3] 	9652
scalar abilene_cost_network.node[3].content_store 	misses[3] 	88903
scalar abilene_cost_network.node[3].content_store 	decision_yes[3] 	739
scalar abilene_cost_network.node[3].content_store 	decision_no[3] 	88153
scalar abilene_cost_network.node[3].content_store 	decision_ratio[3] 	0.008313459028934
scalar abilene_cost_network.node[3].content_store 	correction_factor[3] 	0.0027225701061802
scalar abilene_cost_network.node[3].content_store 	xi[3] 	1
scalar abilene_cost_network.node[4].core_layer 	interests[4] 	45201
scalar abilene_cost_network.node[4].core_layer 	data[4] 	31968
scalar abilene_cost_network.node[4].content_store 	p_hit[4] 	0.29275900975642
scalar abilene_cost_network.node[4].content_store 	hits[4] 	13233
scalar abilene_cost_network.node[4].content_store 	misses[4] 	31968
scalar abilene_cost_network.node[4].content_store 	decision_yes[4] 	67
scalar abilene_cost_network.node[4].content_store 	decision_no[4] 	31901
scalar abilene_cost_network.node[4].content_store 	decision_ratio[4] 	0.0020958458458458
scalar abilene_cost_network.node[4].content_store 	correction_factor[4] 	0.0027225701061802
scalar abilene_cost_network.node[4].content_store 	xi[4] 	1
scalar abilene_cost_network.node[5].core_layer 	interests[5] 	95209
scalar abilene_cost_network.node[5].core_layer 	repo_load[5] 	74305
scalar abilene_cost_network.node[5].core_layer 	data[5] 	0
scalar abilene_cost_network.node[5].content_store 	p_hit[5] 	0.2195590752975
scalar abilene_cost_network.node[5].content_store 	hits[5] 	20904
scalar abilene_cost_network.node[5].content_store 	misses[5] 	74305
scalar abilene_cost_network.node[5].content_store 	decision_yes[5] 	215
scalar abilene_cost_network.node[5].content_store 	decision_no[5] 	74090
scalar abilene_cost_network.node[5].content_store 	decision_ratio[5] 	0.0028934795774174
scalar abilene_cost_network.node[5].content_store 	correction_factor[5] 	0.0027225701061802
scalar abilene_cost_network.node[5].content_store 	xi[5] 	1
scalar abilene_cost_network.node[6].core_layer 	interests[6] 	80786
scalar abilene_cost_network.node[6].core_layer 	data[6] 	63241
scalar abilene_cost_network.node[6].content_store 	p_hit[6] 	0.21717871908499
scalar abilene_cost_network.node[6].content_store 	hits[6] 	17545
scalar abilene_cost_network.node[6].content_store 	misses[6] 	63241
scalar abilene_cost_network.node[6].content_store 	decision_yes[6] 	140
scalar abilene_cost_network.node[6].content_store 	decision_no[6] 	63101
scalar abilene_cost_network.node[6].content_store 	decision_ratio[6] 	0.0022137537357094
scalar abilene_cost_network.node[6].content_store 	correction_factor[6] 	0.0027225701061802
scalar abilene_cost_network.node[6].content_store 	xi[6] 	1
scalar abilene_cost_network.node[7].core_layer 	interests[7] 	297636
scalar abilene_cost_network.node[7].core_layer 	repo_load[7] 	85082
scalar abilene_cost_network.node[7].core_layer 	data[7] 	156604
scalar abilene_cost_network.node[7].content_store 	p_hit[7] 	0.18286094424062
scalar abilene_cost_network.node[7].content_store 	hits[7] 	54426
scalar abilene_cost_network.node[7].content_store 	misses[7] 	243210
scalar abilene_cost_network.node[7].content_store 	decision_yes[7] 	2406
scalar abilene_cost_network.node[7].content_store 	decision_no[7] 	239280
scalar abilene_cost_network.node[7].content_store 	decision_ratio[7] 	0.0099550656637124
scalar abilene_cost_network.node[7].content_store 	correction_factor[7] 	0.0027225701061802
scalar abilene_cost_network.node[7].content_store 	xi[7] 	1
scalar abilene_cost_network.node[8].core_layer 	interests[8] 	273352
scalar abilene_cost_network.node[8].core_layer 	data[8] 	214353
scalar abilene_cost_network.node[8].content_store 	p_hit[8] 	0.20536524334923
scalar abilene_cost_network.node[8].content_store 	hits[8] 	56137
scalar abilene_cost_network.node[8].content_store 	misses[8] 	217215
scalar abilene_cost_network.node[8].content_store 	decision_yes[8] 	735
scalar abilene_cost_network.node[8].content_store 	decision_no[8] 	213618
scalar abilene_cost_network.node[8].content_store 	decision_ratio[8] 	0.0034289233180781
scalar abilene_cost_network.node[8].content_store 	correction_factor[8] 	0.0027225701061802
scalar abilene_cost_network.node[8].content_store 	xi[8] 	1
scalar abilene_cost_network.node[9].core_layer 	interests[9] 	125717
scalar abilene_cost_network.node[9].core_layer 	data[9] 	125717
scalar abilene_cost_network.node[9].content_store 	p_hit[9] 	0
scalar abilene_cost_network.node[9].content_store 	hits[9] 	0
scalar abilene_cost_network.node[9].content_store 	misses[9] 	125717
scalar abilene_cost_network.node[9].content_store 	decision_yes[9] 	0
scalar abilene_cost_network.node[9].content_store 	decision_no[9] 	125717
scalar abilene_cost_network.node[9].content_store 	decision_ratio[9] 	0
scalar abilene_cost_network.node[9].content_store 	correction_factor[9] 	0.0027225701061802
scalar abilene_cost_network.node[9].content_store 	xi[9] 	1
scalar abilene_cost_network.node[10].core_layer 	interests[10] 	190111
scalar abilene_cost_network.node[10].core_layer 	repo_load[10] 	190111
scalar abilene_cost_network.node[10].core_layer 	data[10] 	0
scalar abilene_cost_network.node[10].content_store 	p_hit[10] 	0
scalar abilene_cost_network.node[10].content_store 	hits[10] 	0
scalar abilene_cost_network.node[10].content_store 	misses[10] 	190111
scalar abilene_cost_network.node[10].content_store 	decision_yes[10] 	0
scalar abilene_cost_network.node[10].content_store 	decision_no[10] 	190111
scalar abilene_cost_network.node[10].content_store 	decision_ratio[10] 	0
scalar abilene_cost_network.node[10].content_store 	correction_factor[10] 	0.0027225701061802
scalar abilene_cost_network.node[10].content_store 	xi[10] 	1
scalar abilene_cost_network.client[2] 	hdistance[2] 	2.6211480092342
scalar abilene_cost_network.client[2] 	downloads[2] 	178901
scalar abilene_cost_network.client[2] 	avg_time[2] 	0.0119530059
scalar abilene_cost_network.client[2] 	interests_sent[2] 	180760
scalar abilene_cost_network.client[7] 	hdistance[7] 	2.2468202671818
scalar abilene_cost_network.client[7] 	downloads[7] 	178081
scalar abilene_cost_network.client[7] 	avg_time[7] 	0.011223997186
scalar abilene_cost_network.client[7] 	interests_sent[7] 	179494
scalar abilene_cost_network.client[8] 	hdistance[8] 	2.3084837080099
scalar abilene_cost_network.client[8] 	downloads[8] 	178554
scalar abilene_cost_network.client[8] 	avg_time[8] 	0.011961536446
scalar abilene_cost_network.client[8] 	interests_sent[8] 	179596
