version 2
run General-8-20140902-15:35:54-27555
attr D costprobprodcorr0.01
attr F nrr
attr R lru
attr a 1
attr configname General
attr csize 1e3
attr ctlg 1e5
attr datetime 20140902-15:35:54
attr experiment General
attr inifile omnetpp.ini
attr iterationvars "$net=abilene_cost, $rep=13, $priceratiovalue=10, $weights=0.333_0.333_0.334, $lambda=100, $a=1, $ctlg=1e5, $F=nrr, $ttl=10, $D=costprobprodcorr0.01, $xi=1, $R=lru, $csize=1e3, $pricebits=0, $window=60, $variance=0.05, $mytime=1800"
attr iterationvars2 "$net=abilene_cost, $rep=13, $priceratiovalue=10, $weights=0.333_0.333_0.334, $lambda=100, $a=1, $ctlg=1e5, $F=nrr, $ttl=10, $D=costprobprodcorr0.01, $xi=1, $R=lru, $csize=1e3, $pricebits=0, $window=60, $variance=0.05, $mytime=1800, $repetition=0"
attr lambda 100
attr measurement "$net=abilene_cost, $rep=13, $priceratiovalue=10, $weights=0.333_0.333_0.334, $lambda=100, $a=1, $ctlg=1e5, $F=nrr, $ttl=10, $D=costprobprodcorr0.01, $xi=1, $R=lru, $csize=1e3, $pricebits=0, $window=60, $variance=0.05, $mytime=1800"
attr mytime 1800
attr net abilene_cost
attr network networks.${net=abilene_cost}_network
attr pricebits 0
attr priceratiovalue 10
attr processid 27555
attr rep 13
attr repetition 0
attr replication #0
attr resultdir results
attr runnumber 8
attr seedset 13
attr ttl 10
attr variance 0.05
attr weights 0.333_0.333_0.334
attr window 60
attr xi 1

scalar . 	a 	1
scalar . 	csize 	1e3
scalar . 	ctlg 	1e5
scalar . 	lambda 	100
scalar . 	mytime 	1800
scalar . 	pricebits 	0
scalar . 	priceratiovalue 	10
scalar . 	rep 	13
scalar . 	ttl 	10
scalar . 	variance 	0.05
scalar . 	window 	60
scalar . 	xi 	1
scalar abilene_cost_network.content_distribution 	repo-0 	6
scalar abilene_cost_network.content_distribution 	repo-1 	7
scalar abilene_cost_network.content_distribution 	repo-2 	5
scalar abilene_cost_network.content_distribution 	client-0 	8
scalar abilene_cost_network.content_distribution 	client-1 	2
scalar abilene_cost_network.content_distribution 	client-2 	1
scalar abilene_cost_network.content_distribution 	repo-0_card 	33148
scalar abilene_cost_network.content_distribution 	repo-0_price 	0
scalar abilene_cost_network.content_distribution 	repo-1_card 	33484
scalar abilene_cost_network.content_distribution 	repo-1_price 	1
scalar abilene_cost_network.content_distribution 	repo-2_card 	33368
scalar abilene_cost_network.content_distribution 	repo-2_price 	10
scalar abilene_cost_network.statistics 	repo_popularity[0] 	0.30980219785013
scalar abilene_cost_network.statistics 	repo_popularity[1] 	0.41260472724909
scalar abilene_cost_network.statistics 	repo_popularity[2] 	0.27759307490078
scalar abilene_cost_network.statistics 	stabilization_time 	36060
scalar abilene_cost_network.statistics 	p_hit 	0.11743902623481
scalar abilene_cost_network.statistics 	interests 	162279.18181818
scalar abilene_cost_network.statistics 	data 	113163.81818182
scalar abilene_cost_network.statistics 	hdistance 	2.9484281525016
scalar abilene_cost_network.statistics 	avg_time 	0.012586044609
scalar abilene_cost_network.statistics 	downloads 	534344
scalar abilene_cost_network.statistics 	total_cost 	798646
scalar abilene_cost_network.statistics 	total_replicas 	100000
scalar abilene_cost_network.statistics 	inner_hit 	0.39896770619676
scalar abilene_cost_network.statistics 	interests_sent 	540268
scalar abilene_cost_network.node[0].core_layer 	interests[0] 	0
scalar abilene_cost_network.node[0].core_layer 	data[0] 	0
scalar abilene_cost_network.node[0].core_layer 	repo_int[0] 	321158
scalar abilene_cost_network.node[0].content_store 	p_hit[0] 	-nan
scalar abilene_cost_network.node[0].content_store 	hits[0] 	0
scalar abilene_cost_network.node[0].content_store 	misses[0] 	0
scalar abilene_cost_network.node[0].content_store 	decision_yes[0] 	0
scalar abilene_cost_network.node[0].content_store 	decision_no[0] 	0
scalar abilene_cost_network.node[0].content_store 	decision_ratio[0] 	0
scalar abilene_cost_network.node[0].content_store 	correction_factor[0] 	0.0027225701061802
scalar abilene_cost_network.node[0].content_store 	xi[0] 	1
scalar abilene_cost_network.node[1].core_layer 	interests[1] 	187364
scalar abilene_cost_network.node[1].core_layer 	data[1] 	173899
scalar abilene_cost_network.node[1].content_store 	p_hit[1] 	0.057252193591085
scalar abilene_cost_network.node[1].content_store 	hits[1] 	10727
scalar abilene_cost_network.node[1].content_store 	misses[1] 	176637
scalar abilene_cost_network.node[1].content_store 	decision_yes[1] 	712
scalar abilene_cost_network.node[1].content_store 	decision_no[1] 	173187
scalar abilene_cost_network.node[1].content_store 	decision_ratio[1] 	0.0040943306171973
scalar abilene_cost_network.node[1].content_store 	correction_factor[1] 	0.0027225701061802
scalar abilene_cost_network.node[1].content_store 	xi[1] 	1
scalar abilene_cost_network.node[2].core_layer 	interests[2] 	384406
scalar abilene_cost_network.node[2].core_layer 	data[2] 	324331
scalar abilene_cost_network.node[2].content_store 	p_hit[2] 	0.14437859970968
scalar abilene_cost_network.node[2].content_store 	hits[2] 	55500
scalar abilene_cost_network.node[2].content_store 	misses[2] 	328906
scalar abilene_cost_network.node[2].content_store 	decision_yes[2] 	1484
scalar abilene_cost_network.node[2].content_store 	decision_no[2] 	322847
scalar abilene_cost_network.node[2].content_store 	decision_ratio[2] 	0.004575572486133
scalar abilene_cost_network.node[2].content_store 	correction_factor[2] 	0.0027225701061802
scalar abilene_cost_network.node[2].content_store 	xi[2] 	1
scalar abilene_cost_network.node[3].core_layer 	interests[3] 	300452
scalar abilene_cost_network.node[3].core_layer 	data[3] 	282769
scalar abilene_cost_network.node[3].content_store 	p_hit[3] 	0.058851330661803
scalar abilene_cost_network.node[3].content_store 	hits[3] 	17682
scalar abilene_cost_network.node[3].content_store 	misses[3] 	282770
scalar abilene_cost_network.node[3].content_store 	decision_yes[3] 	1453
scalar abilene_cost_network.node[3].content_store 	decision_no[3] 	281316
scalar abilene_cost_network.node[3].content_store 	decision_ratio[3] 	0.0051384699171408
scalar abilene_cost_network.node[3].content_store 	correction_factor[3] 	0.0027225701061802
scalar abilene_cost_network.node[3].content_store 	xi[3] 	1
scalar abilene_cost_network.node[4].core_layer 	interests[4] 	66537
scalar abilene_cost_network.node[4].core_layer 	data[4] 	58584
scalar abilene_cost_network.node[4].content_store 	p_hit[4] 	0.11952748095045
scalar abilene_cost_network.node[4].content_store 	hits[4] 	7953
scalar abilene_cost_network.node[4].content_store 	misses[4] 	58584
scalar abilene_cost_network.node[4].content_store 	decision_yes[4] 	1321
scalar abilene_cost_network.node[4].content_store 	decision_no[4] 	57263
scalar abilene_cost_network.node[4].content_store 	decision_ratio[4] 	0.022548818790113
scalar abilene_cost_network.node[4].content_store 	correction_factor[4] 	0.0027225701061802
scalar abilene_cost_network.node[4].content_store 	xi[4] 	1
scalar abilene_cost_network.node[5].core_layer 	interests[5] 	88189
scalar abilene_cost_network.node[5].core_layer 	repo_load[5] 	71318
scalar abilene_cost_network.node[5].core_layer 	data[5] 	0
scalar abilene_cost_network.node[5].content_store 	p_hit[5] 	0.19130503804329
scalar abilene_cost_network.node[5].content_store 	hits[5] 	16871
scalar abilene_cost_network.node[5].content_store 	misses[5] 	71318
scalar abilene_cost_network.node[5].content_store 	decision_yes[5] 	1898
scalar abilene_cost_network.node[5].content_store 	decision_no[5] 	69420
scalar abilene_cost_network.node[5].content_store 	decision_ratio[5] 	0.026613197229311
scalar abilene_cost_network.node[5].content_store 	correction_factor[5] 	0.0027225701061802
scalar abilene_cost_network.node[5].content_store 	xi[5] 	1
scalar abilene_cost_network.node[6].core_layer 	interests[6] 	205178
scalar abilene_cost_network.node[6].core_layer 	repo_load[6] 	164374
scalar abilene_cost_network.node[6].core_layer 	data[6] 	29605
scalar abilene_cost_network.node[6].content_store 	p_hit[6] 	0.054581875249783
scalar abilene_cost_network.node[6].content_store 	hits[6] 	11199
scalar abilene_cost_network.node[6].content_store 	misses[6] 	193979
scalar abilene_cost_network.node[6].content_store 	decision_yes[6] 	639
scalar abilene_cost_network.node[6].content_store 	decision_no[6] 	193340
scalar abilene_cost_network.node[6].content_store 	decision_ratio[6] 	0.0032941710185123
scalar abilene_cost_network.node[6].content_store 	correction_factor[6] 	0.0027225701061802
scalar abilene_cost_network.node[6].content_store 	xi[6] 	1
scalar abilene_cost_network.node[7].core_layer 	interests[7] 	355939
scalar abilene_cost_network.node[7].core_layer 	repo_load[7] 	85466
scalar abilene_cost_network.node[7].core_layer 	data[7] 	205178
scalar abilene_cost_network.node[7].content_store 	p_hit[7] 	0.18174181531105
scalar abilene_cost_network.node[7].content_store 	hits[7] 	64689
scalar abilene_cost_network.node[7].content_store 	misses[7] 	291250
scalar abilene_cost_network.node[7].content_store 	decision_yes[7] 	910
scalar abilene_cost_network.node[7].content_store 	decision_no[7] 	289734
scalar abilene_cost_network.node[7].content_store 	decision_ratio[7] 	0.0031309781037971
scalar abilene_cost_network.node[7].content_store 	correction_factor[7] 	0.0027225701061802
scalar abilene_cost_network.node[7].content_store 	xi[7] 	1
scalar abilene_cost_network.node[8].core_layer 	interests[8] 	197006
scalar abilene_cost_network.node[8].core_layer 	data[8] 	170436
scalar abilene_cost_network.node[8].content_store 	p_hit[8] 	0.1269809041349
scalar abilene_cost_network.node[8].content_store 	hits[8] 	25016
scalar abilene_cost_network.node[8].content_store 	misses[8] 	171990
scalar abilene_cost_network.node[8].content_store 	decision_yes[8] 	727
scalar abilene_cost_network.node[8].content_store 	decision_no[8] 	169709
scalar abilene_cost_network.node[8].content_store 	decision_ratio[8] 	0.004265530756413
scalar abilene_cost_network.node[8].content_store 	correction_factor[8] 	0.0027225701061802
scalar abilene_cost_network.node[8].content_store 	xi[8] 	1
scalar abilene_cost_network.node[9].core_layer 	interests[9] 	0
scalar abilene_cost_network.node[9].core_layer 	data[9] 	0
scalar abilene_cost_network.node[9].content_store 	p_hit[9] 	-nan
scalar abilene_cost_network.node[9].content_store 	hits[9] 	0
scalar abilene_cost_network.node[9].content_store 	misses[9] 	0
scalar abilene_cost_network.node[9].content_store 	decision_yes[9] 	0
scalar abilene_cost_network.node[9].content_store 	decision_no[9] 	0
scalar abilene_cost_network.node[9].content_store 	decision_ratio[9] 	0
scalar abilene_cost_network.node[9].content_store 	correction_factor[9] 	0.0027225701061802
scalar abilene_cost_network.node[9].content_store 	xi[9] 	1
scalar abilene_cost_network.node[10].core_layer 	interests[10] 	0
scalar abilene_cost_network.node[10].core_layer 	data[10] 	0
scalar abilene_cost_network.node[10].content_store 	p_hit[10] 	-nan
scalar abilene_cost_network.node[10].content_store 	hits[10] 	0
scalar abilene_cost_network.node[10].content_store 	misses[10] 	0
scalar abilene_cost_network.node[10].content_store 	decision_yes[10] 	0
scalar abilene_cost_network.node[10].content_store 	decision_no[10] 	0
scalar abilene_cost_network.node[10].content_store 	decision_ratio[10] 	0
scalar abilene_cost_network.node[10].content_store 	correction_factor[10] 	0.0027225701061802
scalar abilene_cost_network.node[10].content_store 	xi[10] 	1
scalar abilene_cost_network.client[1] 	hdistance[1] 	3.7548314011486
scalar abilene_cost_network.client[1] 	downloads[1] 	177433
scalar abilene_cost_network.client[1] 	avg_time[1] 	0.016381498004
scalar abilene_cost_network.client[1] 	interests_sent[1] 	180171
scalar abilene_cost_network.client[2] 	hdistance[2] 	2.7864953465136
scalar abilene_cost_network.client[2] 	downloads[2] 	178146
scalar abilene_cost_network.client[2] 	avg_time[2] 	0.010703818408
scalar abilene_cost_network.client[2] 	interests_sent[2] 	179778
scalar abilene_cost_network.client[8] 	hdistance[8] 	2.3039577098426
scalar abilene_cost_network.client[8] 	downloads[8] 	178765
scalar abilene_cost_network.client[8] 	avg_time[8] 	0.010672817415
scalar abilene_cost_network.client[8] 	interests_sent[8] 	180319
