version 2
run General-12-20140902-16:30:03-17302
attr D costprobprodcorr0.01
attr F nrr
attr R lru
attr a 1
attr configname General
attr csize 1e3
attr ctlg 1e5
attr datetime 20140902-16:30:03
attr experiment General
attr inifile omnetpp.ini
attr iterationvars "$net=abilene_cost, $rep=9, $priceratiovalue=10, $weights=0.333_0.333_0.334, $lambda=100, $a=1, $ctlg=1e5, $F=nrr, $ttl=10, $D=costprobprodcorr0.01, $xi=1, $R=lru, $csize=1e3, $pricebits=0, $window=60, $variance=0.05, $mytime=1800"
attr iterationvars2 "$net=abilene_cost, $rep=9, $priceratiovalue=10, $weights=0.333_0.333_0.334, $lambda=100, $a=1, $ctlg=1e5, $F=nrr, $ttl=10, $D=costprobprodcorr0.01, $xi=1, $R=lru, $csize=1e3, $pricebits=0, $window=60, $variance=0.05, $mytime=1800, $repetition=0"
attr lambda 100
attr measurement "$net=abilene_cost, $rep=9, $priceratiovalue=10, $weights=0.333_0.333_0.334, $lambda=100, $a=1, $ctlg=1e5, $F=nrr, $ttl=10, $D=costprobprodcorr0.01, $xi=1, $R=lru, $csize=1e3, $pricebits=0, $window=60, $variance=0.05, $mytime=1800"
attr mytime 1800
attr net abilene_cost
attr network networks.${net=abilene_cost}_network
attr pricebits 0
attr priceratiovalue 10
attr processid 17302
attr rep 9
attr repetition 0
attr replication #0
attr resultdir results
attr runnumber 12
attr seedset 9
attr ttl 10
attr variance 0.05
attr weights 0.333_0.333_0.334
attr window 60
attr xi 1

scalar . 	a 	1
scalar . 	csize 	1e3
scalar . 	ctlg 	1e5
scalar . 	lambda 	100
scalar . 	mytime 	1800
scalar . 	pricebits 	0
scalar . 	priceratiovalue 	10
scalar . 	rep 	9
scalar . 	ttl 	10
scalar . 	variance 	0.05
scalar . 	window 	60
scalar . 	xi 	1
scalar abilene_cost_network.content_distribution 	repo-0 	1
scalar abilene_cost_network.content_distribution 	repo-1 	9
scalar abilene_cost_network.content_distribution 	repo-2 	5
scalar abilene_cost_network.content_distribution 	client-0 	0
scalar abilene_cost_network.content_distribution 	client-1 	3
scalar abilene_cost_network.content_distribution 	client-2 	7
scalar abilene_cost_network.content_distribution 	repo-0_card 	33404
scalar abilene_cost_network.content_distribution 	repo-0_price 	10
scalar abilene_cost_network.content_distribution 	repo-1_card 	33170
scalar abilene_cost_network.content_distribution 	repo-1_price 	0
scalar abilene_cost_network.content_distribution 	repo-2_card 	33426
scalar abilene_cost_network.content_distribution 	repo-2_price 	1
scalar abilene_cost_network.statistics 	repo_popularity[0] 	0.31986479737952
scalar abilene_cost_network.statistics 	repo_popularity[1] 	0.28163181829958
scalar abilene_cost_network.statistics 	repo_popularity[2] 	0.39850338432091
scalar abilene_cost_network.statistics 	stabilization_time 	36060
scalar abilene_cost_network.statistics 	p_hit 	0.13143217106453
scalar abilene_cost_network.statistics 	interests 	154272.45454545
scalar abilene_cost_network.statistics 	data 	105191.81818182
scalar abilene_cost_network.statistics 	hdistance 	2.7604190631063
scalar abilene_cost_network.statistics 	avg_time 	0.014202588194
scalar abilene_cost_network.statistics 	downloads 	532557
scalar abilene_cost_network.statistics 	total_cost 	897497
scalar abilene_cost_network.statistics 	total_replicas 	100000
scalar abilene_cost_network.statistics 	inner_hit 	0.42389828694393
scalar abilene_cost_network.statistics 	interests_sent 	539884
scalar abilene_cost_network.node[0].core_layer 	interests[0] 	179574
scalar abilene_cost_network.node[0].core_layer 	data[0] 	160042
scalar abilene_cost_network.node[0].core_layer 	repo_int[0] 	306807
scalar abilene_cost_network.node[0].content_store 	p_hit[0] 	0.088370254045686
scalar abilene_cost_network.node[0].content_store 	hits[0] 	15869
scalar abilene_cost_network.node[0].content_store 	misses[0] 	163705
scalar abilene_cost_network.node[0].content_store 	decision_yes[0] 	870
scalar abilene_cost_network.node[0].content_store 	decision_no[0] 	159172
scalar abilene_cost_network.node[0].content_store 	decision_ratio[0] 	0.0054360730308294
scalar abilene_cost_network.node[0].content_store 	correction_factor[0] 	0.0027225701061802
scalar abilene_cost_network.node[0].content_store 	xi[0] 	1
scalar abilene_cost_network.node[1].core_layer 	interests[1] 	194607
scalar abilene_cost_network.node[1].core_layer 	repo_load[1] 	82336
scalar abilene_cost_network.node[1].core_layer 	data[1] 	62002
scalar abilene_cost_network.node[1].content_store 	p_hit[1] 	0.25831033827149
scalar abilene_cost_network.node[1].content_store 	hits[1] 	50269
scalar abilene_cost_network.node[1].content_store 	misses[1] 	144338
scalar abilene_cost_network.node[1].content_store 	decision_yes[1] 	2313
scalar abilene_cost_network.node[1].content_store 	decision_no[1] 	142025
scalar abilene_cost_network.node[1].content_store 	decision_ratio[1] 	0.016024886031399
scalar abilene_cost_network.node[1].content_store 	correction_factor[1] 	0.0027225701061802
scalar abilene_cost_network.node[1].content_store 	xi[1] 	1
scalar abilene_cost_network.node[2].core_layer 	interests[2] 	210420
scalar abilene_cost_network.node[2].core_layer 	data[2] 	194578
scalar abilene_cost_network.node[2].content_store 	p_hit[2] 	0.075292272597662
scalar abilene_cost_network.node[2].content_store 	hits[2] 	15843
scalar abilene_cost_network.node[2].content_store 	misses[2] 	194577
scalar abilene_cost_network.node[2].content_store 	decision_yes[2] 	1541
scalar abilene_cost_network.node[2].content_store 	decision_no[2] 	193037
scalar abilene_cost_network.node[2].content_store 	decision_ratio[2] 	0.0079197031524633
scalar abilene_cost_network.node[2].content_store 	correction_factor[2] 	0.0027225701061802
scalar abilene_cost_network.node[2].content_store 	xi[2] 	1
scalar abilene_cost_network.node[3].core_layer 	interests[3] 	310276
scalar abilene_cost_network.node[3].core_layer 	data[3] 	271826
scalar abilene_cost_network.node[3].content_store 	p_hit[3] 	0.1109463832201
scalar abilene_cost_network.node[3].content_store 	hits[3] 	34424
scalar abilene_cost_network.node[3].content_store 	misses[3] 	275852
scalar abilene_cost_network.node[3].content_store 	decision_yes[3] 	1588
scalar abilene_cost_network.node[3].content_store 	decision_no[3] 	270238
scalar abilene_cost_network.node[3].content_store 	decision_ratio[3] 	0.0058419724382509
scalar abilene_cost_network.node[3].content_store 	correction_factor[3] 	0.0027225701061802
scalar abilene_cost_network.node[3].content_store 	xi[3] 	1
scalar abilene_cost_network.node[4].core_layer 	interests[4] 	106300
scalar abilene_cost_network.node[4].core_layer 	data[4] 	89421
scalar abilene_cost_network.node[4].content_store 	p_hit[4] 	0.15877704609595
scalar abilene_cost_network.node[4].content_store 	hits[4] 	16878
scalar abilene_cost_network.node[4].content_store 	misses[4] 	89422
scalar abilene_cost_network.node[4].content_store 	decision_yes[4] 	117
scalar abilene_cost_network.node[4].content_store 	decision_no[4] 	89304
scalar abilene_cost_network.node[4].content_store 	decision_ratio[4] 	0.0013084174858255
scalar abilene_cost_network.node[4].content_store 	correction_factor[4] 	0.0027225701061802
scalar abilene_cost_network.node[4].content_store 	xi[4] 	1
scalar abilene_cost_network.node[5].core_layer 	interests[5] 	136279
scalar abilene_cost_network.node[5].core_layer 	repo_load[5] 	74137
scalar abilene_cost_network.node[5].core_layer 	data[5] 	0
scalar abilene_cost_network.node[5].content_store 	p_hit[5] 	0.45599101842544
scalar abilene_cost_network.node[5].content_store 	hits[5] 	62142
scalar abilene_cost_network.node[5].content_store 	misses[5] 	74137
scalar abilene_cost_network.node[5].content_store 	decision_yes[5] 	202
scalar abilene_cost_network.node[5].content_store 	decision_no[5] 	73935
scalar abilene_cost_network.node[5].content_store 	decision_ratio[5] 	0.0027246853797699
scalar abilene_cost_network.node[5].content_store 	correction_factor[5] 	0.0027225701061802
scalar abilene_cost_network.node[5].content_store 	xi[5] 	1
scalar abilene_cost_network.node[6].core_layer 	interests[6] 	61521
scalar abilene_cost_network.node[6].core_layer 	data[6] 	46857
scalar abilene_cost_network.node[6].content_store 	p_hit[6] 	0.23835763397864
scalar abilene_cost_network.node[6].content_store 	hits[6] 	14664
scalar abilene_cost_network.node[6].content_store 	misses[6] 	46857
scalar abilene_cost_network.node[6].content_store 	decision_yes[6] 	73
scalar abilene_cost_network.node[6].content_store 	decision_no[6] 	46784
scalar abilene_cost_network.node[6].content_store 	decision_ratio[6] 	0.0015579315790597
scalar abilene_cost_network.node[6].content_store 	correction_factor[6] 	0.0027225701061802
scalar abilene_cost_network.node[6].content_store 	xi[6] 	1
scalar abilene_cost_network.node[7].core_layer 	interests[7] 	196831
scalar abilene_cost_network.node[7].core_layer 	data[7] 	182050
scalar abilene_cost_network.node[7].content_store 	p_hit[7] 	0.065797562375845
scalar abilene_cost_network.node[7].content_store 	hits[7] 	12951
scalar abilene_cost_network.node[7].content_store 	misses[7] 	183880
scalar abilene_cost_network.node[7].content_store 	decision_yes[7] 	767
scalar abilene_cost_network.node[7].content_store 	decision_no[7] 	181283
scalar abilene_cost_network.node[7].content_store 	decision_ratio[7] 	0.0042131282614666
scalar abilene_cost_network.node[7].content_store 	correction_factor[7] 	0.0027225701061802
scalar abilene_cost_network.node[7].content_store 	xi[7] 	1
scalar abilene_cost_network.node[8].core_layer 	interests[8] 	100497
scalar abilene_cost_network.node[8].core_layer 	data[8] 	99976
scalar abilene_cost_network.node[8].content_store 	p_hit[8] 	0
scalar abilene_cost_network.node[8].content_store 	hits[8] 	0
scalar abilene_cost_network.node[8].content_store 	misses[8] 	100497
scalar abilene_cost_network.node[8].content_store 	decision_yes[8] 	0
scalar abilene_cost_network.node[8].content_store 	decision_no[8] 	99976
scalar abilene_cost_network.node[8].content_store 	decision_ratio[8] 	0
scalar abilene_cost_network.node[8].content_store 	correction_factor[8] 	0.0027225701061802
scalar abilene_cost_network.node[8].content_store 	xi[8] 	1
scalar abilene_cost_network.node[9].core_layer 	interests[9] 	150334
scalar abilene_cost_network.node[9].core_layer 	repo_load[9] 	150334
scalar abilene_cost_network.node[9].core_layer 	data[9] 	0
scalar abilene_cost_network.node[9].content_store 	p_hit[9] 	0
scalar abilene_cost_network.node[9].content_store 	hits[9] 	0
scalar abilene_cost_network.node[9].content_store 	misses[9] 	150334
scalar abilene_cost_network.node[9].content_store 	decision_yes[9] 	0
scalar abilene_cost_network.node[9].content_store 	decision_no[9] 	150334
scalar abilene_cost_network.node[9].content_store 	decision_ratio[9] 	0
scalar abilene_cost_network.node[9].content_store 	correction_factor[9] 	0.0027225701061802
scalar abilene_cost_network.node[9].content_store 	xi[9] 	1
scalar abilene_cost_network.node[10].core_layer 	interests[10] 	50358
scalar abilene_cost_network.node[10].core_layer 	data[10] 	50358
scalar abilene_cost_network.node[10].content_store 	p_hit[10] 	0
scalar abilene_cost_network.node[10].content_store 	hits[10] 	0
scalar abilene_cost_network.node[10].content_store 	misses[10] 	50358
scalar abilene_cost_network.node[10].content_store 	decision_yes[10] 	0
scalar abilene_cost_network.node[10].content_store 	decision_no[10] 	50358
scalar abilene_cost_network.node[10].content_store 	decision_ratio[10] 	0
scalar abilene_cost_network.node[10].content_store 	correction_factor[10] 	0.0027225701061802
scalar abilene_cost_network.node[10].content_store 	xi[10] 	1
scalar abilene_cost_network.client[0] 	hdistance[0] 	3.077256806241
scalar abilene_cost_network.client[0] 	downloads[0] 	175868
scalar abilene_cost_network.client[0] 	avg_time[0] 	0.016386473324
scalar abilene_cost_network.client[0] 	interests_sent[0] 	179531
scalar abilene_cost_network.client[3] 	hdistance[3] 	2.5738839498022
scalar abilene_cost_network.client[3] 	downloads[3] 	178733
scalar abilene_cost_network.client[3] 	avg_time[3] 	0.013129028982
scalar abilene_cost_network.client[3] 	interests_sent[3] 	180587
scalar abilene_cost_network.client[7] 	hdistance[7] 	2.6301164332757
scalar abilene_cost_network.client[7] 	downloads[7] 	177956
scalar abilene_cost_network.client[7] 	avg_time[7] 	0.013092262276
scalar abilene_cost_network.client[7] 	interests_sent[7] 	179766
