version 2
run General-5-20150902-20:49:48-2318
attr C 1e3
attr D fix0.01
attr F spr
attr R lru_repr
attr a 1
attr brates 0.3_0.7_1.5_2.5_3.5
attr configname General
attr ctlg 1e5
attr datetime 20150902-20:49:48
attr experiment General
attr inifile omnetpp.ini
attr iterationvars "$net=abilene_nodelay, $rep=0, $lambda=100, $a=1, $ctlg=1e5, $brates=0.3_0.7_1.5_2.5_3.5, $F=spr, $ttl=1000, $D=fix0.01, $R=lru_repr, $proactiveprob=0.1, $C=1e3, $window=60, $variance=0.05, $mytime=180000"
attr iterationvars2 "$net=abilene_nodelay, $rep=0, $lambda=100, $a=1, $ctlg=1e5, $brates=0.3_0.7_1.5_2.5_3.5, $F=spr, $ttl=1000, $D=fix0.01, $R=lru_repr, $proactiveprob=0.1, $C=1e3, $window=60, $variance=0.05, $mytime=180000, $repetition=0"
attr lambda 100
attr measurement "$net=abilene_nodelay, $rep=0, $lambda=100, $a=1, $ctlg=1e5, $brates=0.3_0.7_1.5_2.5_3.5, $F=spr, $ttl=1000, $D=fix0.01, $R=lru_repr, $proactiveprob=0.1, $C=1e3, $window=60, $variance=0.05, $mytime=180000"
attr mytime 180000
attr net abilene_nodelay
attr network networks.${net=abilene_nodelay}_network
attr proactiveprob 0.1
attr processid 2318
attr rep 0
attr repetition 0
attr replication #0
attr resultdir results
attr runnumber 5
attr seedset 0
attr ttl 1000
attr variance 0.05
attr window 60

scalar . 	C 	1e3
scalar . 	a 	1
scalar . 	ctlg 	1e5
scalar . 	lambda 	100
scalar . 	mytime 	180000
scalar . 	proactiveprob 	0.1
scalar . 	rep 	0
scalar . 	ttl 	1000
scalar . 	variance 	0.05
scalar . 	window 	60
scalar abilene_nodelay_network.content_distribution 	repo-0 	5
scalar abilene_nodelay_network.content_distribution 	repo-1 	8
scalar abilene_nodelay_network.content_distribution 	repo-2 	9
scalar abilene_nodelay_network.content_distribution 	repo-3 	0
scalar abilene_nodelay_network.content_distribution 	repo-4 	1
scalar abilene_nodelay_network.content_distribution 	repo-5 	7
scalar abilene_nodelay_network.content_distribution 	repo-6 	6
scalar abilene_nodelay_network.content_distribution 	repo-7 	2
scalar abilene_nodelay_network.content_distribution 	repo-8 	4
scalar abilene_nodelay_network.content_distribution 	repo-9 	10
scalar abilene_nodelay_network.content_distribution 	repo-10 	3
scalar abilene_nodelay_network.content_distribution 	client-0 	10
scalar abilene_nodelay_network.content_distribution 	client-1 	9
scalar abilene_nodelay_network.content_distribution 	client-2 	8
scalar abilene_nodelay_network.content_distribution 	client-3 	7
scalar abilene_nodelay_network.content_distribution 	client-4 	3
scalar abilene_nodelay_network.content_distribution 	client-5 	6
scalar abilene_nodelay_network.content_distribution 	client-6 	5
scalar abilene_nodelay_network.content_distribution 	client-7 	1
scalar abilene_nodelay_network.content_distribution 	client-8 	4
scalar abilene_nodelay_network.content_distribution 	client-9 	0
scalar abilene_nodelay_network.content_distribution 	client-10 	2
scalar abilene_nodelay_network.content_distribution 	repo-0_card 	9071
scalar abilene_nodelay_network.content_distribution 	repo-0_price 	0
scalar abilene_nodelay_network.content_distribution 	repo-1_card 	8986
scalar abilene_nodelay_network.content_distribution 	repo-1_price 	0
scalar abilene_nodelay_network.content_distribution 	repo-2_card 	9050
scalar abilene_nodelay_network.content_distribution 	repo-2_price 	0
scalar abilene_nodelay_network.content_distribution 	repo-3_card 	8986
scalar abilene_nodelay_network.content_distribution 	repo-3_price 	0
scalar abilene_nodelay_network.content_distribution 	repo-4_card 	9064
scalar abilene_nodelay_network.content_distribution 	repo-4_price 	0
scalar abilene_nodelay_network.content_distribution 	repo-5_card 	9170
scalar abilene_nodelay_network.content_distribution 	repo-5_price 	0
scalar abilene_nodelay_network.content_distribution 	repo-6_card 	9151
scalar abilene_nodelay_network.content_distribution 	repo-6_price 	0
scalar abilene_nodelay_network.content_distribution 	repo-7_card 	9112
scalar abilene_nodelay_network.content_distribution 	repo-7_price 	0
scalar abilene_nodelay_network.content_distribution 	repo-8_card 	9132
scalar abilene_nodelay_network.content_distribution 	repo-8_price 	0
scalar abilene_nodelay_network.content_distribution 	repo-9_card 	9101
scalar abilene_nodelay_network.content_distribution 	repo-9_price 	0
scalar abilene_nodelay_network.content_distribution 	repo-10_card 	9177
scalar abilene_nodelay_network.content_distribution 	repo-10_price 	0
scalar abilene_nodelay_network.statistics 	stabilization_time 	36060
scalar abilene_nodelay_network.statistics 	p_hit 	0.4261231242085
scalar abilene_nodelay_network.statistics 	interests 	30006672.636364
scalar abilene_nodelay_network.statistics 	data 	11416207
scalar abilene_nodelay_network.statistics 	hdistance 	0.87413491033781
scalar abilene_nodelay_network.statistics 	avg_time 	0
scalar abilene_nodelay_network.statistics 	downloads 	197980075
scalar abilene_nodelay_network.statistics 	total_cost 	0
scalar abilene_nodelay_network.statistics 	total_replicas 	100000
scalar abilene_nodelay_network.statistics 	"representations_downloaded 0.481108:0.0618618:0.0414018:0.0363858:0.379243:" 	0
scalar abilene_nodelay_network.statistics 	"slots_per_representation 100:233:500:833:1167:" 	0
scalar abilene_nodelay_network.statistics 	inner_hit 	0.67752707437857
scalar abilene_nodelay_network.statistics 	execution_time 	6847
scalar abilene_nodelay_network.node[0].core_layer 	interests[0] 	21992614
scalar abilene_nodelay_network.node[0].core_layer 	repo_load[0] 	4886803
scalar abilene_nodelay_network.node[0].core_layer 	data[0] 	5605083
scalar abilene_nodelay_network.node[0].core_layer 	slots_sent[face$o[1]->client[0]] 	10809564394
scalar abilene_nodelay_network.node[0].core_layer 	slots_sent[face$o[2]->node[1]] 	380296705
scalar abilene_nodelay_network.node[0].core_layer 	slots_sent[face$o[3]->node[10]] 	130698679
scalar abilene_nodelay_network.node[0].content_store 	p_hit[0] 	0.52293592748911
scalar abilene_nodelay_network.node[0].content_store 	hits[0] 	11500728
scalar abilene_nodelay_network.node[0].content_store 	misses[0] 	10491886
scalar abilene_nodelay_network.node[0].content_store 	decision_yes[0] 	55966
scalar abilene_nodelay_network.node[0].content_store 	decision_no[0] 	10435920
scalar abilene_nodelay_network.node[0].content_store 	decision_ratio[0] 	0.0053342173180303
scalar abilene_nodelay_network.node[0].content_store 	"representation_breakdown[0] 6230:466:173:105:224:" 	0
scalar abilene_nodelay_network.node[0].proactive_component 	hdistance[0].proactive_component 	2.7363373086247
scalar abilene_nodelay_network.node[0].proactive_component 	downloads[0].proactive_component 	491704
scalar abilene_nodelay_network.node[0].proactive_component 	avg_time[0].proactive_component 	0
scalar abilene_nodelay_network.node[1].core_layer 	interests[1] 	33809957
scalar abilene_nodelay_network.node[1].core_layer 	repo_load[1] 	6217363
scalar abilene_nodelay_network.node[1].core_layer 	data[1] 	14459999
scalar abilene_nodelay_network.node[1].core_layer 	slots_sent[face$o[1]->client[1]] 	9239793649
scalar abilene_nodelay_network.node[1].core_layer 	slots_sent[face$o[2]->node[0]] 	762808542
scalar abilene_nodelay_network.node[1].core_layer 	slots_sent[face$o[3]->node[10]] 	566274292
scalar abilene_nodelay_network.node[1].core_layer 	slots_sent[face$o[4]->node[2]] 	1107086442
scalar abilene_nodelay_network.node[1].content_store 	p_hit[1] 	0.38842388944772
scalar abilene_nodelay_network.node[1].content_store 	hits[1] 	13132595
scalar abilene_nodelay_network.node[1].content_store 	misses[1] 	20677362
scalar abilene_nodelay_network.node[1].content_store 	decision_yes[1] 	144894
scalar abilene_nodelay_network.node[1].content_store 	decision_no[1] 	20532468
scalar abilene_nodelay_network.node[1].content_store 	decision_ratio[1] 	0.0070073735711548
scalar abilene_nodelay_network.node[1].content_store 	"representation_breakdown[1] 6542:541:194:104:174:" 	0
scalar abilene_nodelay_network.node[1].proactive_component 	hdistance[1].proactive_component 	2.5161877280311
scalar abilene_nodelay_network.node[1].proactive_component 	downloads[1].proactive_component 	854598
scalar abilene_nodelay_network.node[1].proactive_component 	avg_time[1].proactive_component 	0
scalar abilene_nodelay_network.node[2].core_layer 	interests[2] 	42925319
scalar abilene_nodelay_network.node[2].core_layer 	repo_load[2] 	7080930
scalar abilene_nodelay_network.node[2].core_layer 	data[2] 	21220754
scalar abilene_nodelay_network.node[2].core_layer 	slots_sent[face$o[1]->client[2]] 	9109207572
scalar abilene_nodelay_network.node[2].core_layer 	slots_sent[face$o[2]->node[1]] 	1492575619
scalar abilene_nodelay_network.node[2].core_layer 	slots_sent[face$o[3]->node[3]] 	1660072757
scalar abilene_nodelay_network.node[2].core_layer 	slots_sent[face$o[4]->node[8]] 	744238615
scalar abilene_nodelay_network.node[2].content_store 	p_hit[2] 	0.34067621023387
scalar abilene_nodelay_network.node[2].content_store 	hits[2] 	14623635
scalar abilene_nodelay_network.node[2].content_store 	misses[2] 	28301684
scalar abilene_nodelay_network.node[2].content_store 	decision_yes[2] 	211755
scalar abilene_nodelay_network.node[2].content_store 	decision_no[2] 	28089929
scalar abilene_nodelay_network.node[2].content_store 	decision_ratio[2] 	0.0074820636114798
scalar abilene_nodelay_network.node[2].content_store 	"representation_breakdown[2] 6752:571:158:120:154:" 	0
scalar abilene_nodelay_network.node[2].proactive_component 	hdistance[2].proactive_component 	2.4690900479661
scalar abilene_nodelay_network.node[2].proactive_component 	downloads[2].proactive_component 	1026142
scalar abilene_nodelay_network.node[2].proactive_component 	avg_time[2].proactive_component 	0
scalar abilene_nodelay_network.node[3].core_layer 	interests[3] 	40778071
scalar abilene_nodelay_network.node[3].core_layer 	repo_load[3] 	6094616
scalar abilene_nodelay_network.node[3].core_layer 	data[3] 	19637762
scalar abilene_nodelay_network.node[3].core_layer 	slots_sent[face$o[1]->client[3]] 	9791395906
scalar abilene_nodelay_network.node[3].core_layer 	slots_sent[face$o[2]->node[2]] 	1582331110
scalar abilene_nodelay_network.node[3].core_layer 	slots_sent[face$o[3]->node[4]] 	1126149149
scalar abilene_nodelay_network.node[3].core_layer 	slots_sent[face$o[4]->node[7]] 	813832875
scalar abilene_nodelay_network.node[3].content_store 	p_hit[3] 	0.36896529509697
scalar abilene_nodelay_network.node[3].content_store 	hits[3] 	15045693
scalar abilene_nodelay_network.node[3].content_store 	misses[3] 	25732378
scalar abilene_nodelay_network.node[3].content_store 	decision_yes[3] 	196206
scalar abilene_nodelay_network.node[3].content_store 	decision_no[3] 	25536172
scalar abilene_nodelay_network.node[3].content_store 	decision_ratio[3] 	0.0076248685605349
scalar abilene_nodelay_network.node[3].content_store 	"representation_breakdown[3] 6809:580:172:105:152:" 	0
scalar abilene_nodelay_network.node[3].proactive_component 	hdistance[3].proactive_component 	2.4653663388657
scalar abilene_nodelay_network.node[3].proactive_component 	downloads[3].proactive_component 	1011386
scalar abilene_nodelay_network.node[3].proactive_component 	avg_time[3].proactive_component 	0
scalar abilene_nodelay_network.node[4].core_layer 	interests[4] 	27434071
scalar abilene_nodelay_network.node[4].core_layer 	repo_load[4] 	5252237
scalar abilene_nodelay_network.node[4].core_layer 	data[4] 	9565121
scalar abilene_nodelay_network.node[4].core_layer 	slots_sent[face$o[1]->client[4]] 	10428656654
scalar abilene_nodelay_network.node[4].core_layer 	slots_sent[face$o[2]->node[3]] 	771001789
scalar abilene_nodelay_network.node[4].core_layer 	slots_sent[face$o[3]->node[5]] 	636486419
scalar abilene_nodelay_network.node[4].content_store 	p_hit[4] 	0.4598921173602
scalar abilene_nodelay_network.node[4].content_store 	hits[4] 	12616713
scalar abilene_nodelay_network.node[4].content_store 	misses[4] 	14817358
scalar abilene_nodelay_network.node[4].content_store 	decision_yes[4] 	95954
scalar abilene_nodelay_network.node[4].content_store 	decision_no[4] 	14721404
scalar abilene_nodelay_network.node[4].content_store 	decision_ratio[4] 	0.0064757833346539
scalar abilene_nodelay_network.node[4].content_store 	"representation_breakdown[4] 6579:527:181:90:189:" 	0
scalar abilene_nodelay_network.node[4].proactive_component 	hdistance[4].proactive_component 	2.606303488456
scalar abilene_nodelay_network.node[4].proactive_component 	downloads[4].proactive_component 	651893
scalar abilene_nodelay_network.node[4].proactive_component 	avg_time[4].proactive_component 	0
scalar abilene_nodelay_network.node[5].core_layer 	interests[5] 	23223221
scalar abilene_nodelay_network.node[5].core_layer 	repo_load[5] 	6360855
scalar abilene_nodelay_network.node[5].core_layer 	data[5] 	6491372
scalar abilene_nodelay_network.node[5].core_layer 	slots_sent[face$o[1]->client[5]] 	9341905148
scalar abilene_nodelay_network.node[5].core_layer 	slots_sent[face$o[2]->node[4]] 	409253778
scalar abilene_nodelay_network.node[5].core_layer 	slots_sent[face$o[3]->node[6]] 	320411209
scalar abilene_nodelay_network.node[5].content_store 	p_hit[5] 	0.44657862059703
scalar abilene_nodelay_network.node[5].content_store 	hits[5] 	10370994
scalar abilene_nodelay_network.node[5].content_store 	misses[5] 	12852227
scalar abilene_nodelay_network.node[5].content_store 	decision_yes[5] 	65126
scalar abilene_nodelay_network.node[5].content_store 	decision_no[5] 	12787101
scalar abilene_nodelay_network.node[5].content_store 	decision_ratio[5] 	0.0050672930068851
scalar abilene_nodelay_network.node[5].content_store 	"representation_breakdown[5] 6334:468:152:103:225:" 	0
scalar abilene_nodelay_network.node[5].proactive_component 	hdistance[5].proactive_component 	2.6538335855472
scalar abilene_nodelay_network.node[5].proactive_component 	downloads[5].proactive_component 	514114
scalar abilene_nodelay_network.node[5].proactive_component 	avg_time[5].proactive_component 	0
scalar abilene_nodelay_network.node[6].core_layer 	interests[6] 	25357690
scalar abilene_nodelay_network.node[6].core_layer 	repo_load[6] 	5094617
scalar abilene_nodelay_network.node[6].core_layer 	data[6] 	8040588
scalar abilene_nodelay_network.node[6].core_layer 	slots_sent[face$o[1]->client[6]] 	10618318915
scalar abilene_nodelay_network.node[6].core_layer 	slots_sent[face$o[2]->node[5]] 	427250347
scalar abilene_nodelay_network.node[6].core_layer 	slots_sent[face$o[3]->node[7]] 	639243996
scalar abilene_nodelay_network.node[6].content_store 	p_hit[6] 	0.48200309255299
scalar abilene_nodelay_network.node[6].content_store 	hits[6] 	12222485
scalar abilene_nodelay_network.node[6].content_store 	misses[6] 	13135205
scalar abilene_nodelay_network.node[6].content_store 	decision_yes[6] 	80112
scalar abilene_nodelay_network.node[6].content_store 	decision_no[6] 	13055093
scalar abilene_nodelay_network.node[6].content_store 	decision_ratio[6] 	0.006099029288085
scalar abilene_nodelay_network.node[6].content_store 	"representation_breakdown[6] 6510:503:167:98:200:" 	0
scalar abilene_nodelay_network.node[6].proactive_component 	hdistance[6].proactive_component 	2.5531909845789
scalar abilene_nodelay_network.node[6].proactive_component 	downloads[6].proactive_component 	590100
scalar abilene_nodelay_network.node[6].proactive_component 	avg_time[6].proactive_component 	0
scalar abilene_nodelay_network.node[7].core_layer 	interests[7] 	32555131
scalar abilene_nodelay_network.node[7].core_layer 	repo_load[7] 	5885312
scalar abilene_nodelay_network.node[7].core_layer 	data[7] 	12917315
scalar abilene_nodelay_network.node[7].core_layer 	slots_sent[face$o[1]->client[7]] 	10371794880
scalar abilene_nodelay_network.node[7].core_layer 	slots_sent[face$o[2]->node[3]] 	614684233
scalar abilene_nodelay_network.node[7].core_layer 	slots_sent[face$o[3]->node[6]] 	982659885
scalar abilene_nodelay_network.node[7].core_layer 	slots_sent[face$o[4]->node[8]] 	609565693
scalar abilene_nodelay_network.node[7].content_store 	p_hit[7] 	0.42243737246826
scalar abilene_nodelay_network.node[7].content_store 	hits[7] 	13752504
scalar abilene_nodelay_network.node[7].content_store 	misses[7] 	18802627
scalar abilene_nodelay_network.node[7].content_store 	decision_yes[7] 	128678
scalar abilene_nodelay_network.node[7].content_store 	decision_no[7] 	18673949
scalar abilene_nodelay_network.node[7].content_store 	decision_ratio[7] 	0.0068436181816509
scalar abilene_nodelay_network.node[7].content_store 	"representation_breakdown[7] 6586:568:149:121:172:" 	0
scalar abilene_nodelay_network.node[7].proactive_component 	hdistance[7].proactive_component 	2.4027657180824
scalar abilene_nodelay_network.node[7].proactive_component 	downloads[7].proactive_component 	794658
scalar abilene_nodelay_network.node[7].proactive_component 	avg_time[7].proactive_component 	0
scalar abilene_nodelay_network.node[8].core_layer 	interests[8] 	31529971
scalar abilene_nodelay_network.node[8].core_layer 	repo_load[8] 	5542277
scalar abilene_nodelay_network.node[8].core_layer 	data[8] 	12284524
scalar abilene_nodelay_network.node[8].core_layer 	slots_sent[face$o[1]->client[8]] 	10286057252
scalar abilene_nodelay_network.node[8].core_layer 	slots_sent[face$o[2]->node[2]] 	563294131
scalar abilene_nodelay_network.node[8].core_layer 	slots_sent[face$o[3]->node[7]] 	592984678
scalar abilene_nodelay_network.node[8].core_layer 	slots_sent[face$o[4]->node[9]] 	863651495
scalar abilene_nodelay_network.node[8].content_store 	p_hit[8] 	0.43460775780606
scalar abilene_nodelay_network.node[8].content_store 	hits[8] 	13703170
scalar abilene_nodelay_network.node[8].content_store 	misses[8] 	17826801
scalar abilene_nodelay_network.node[8].content_store 	decision_yes[8] 	122849
scalar abilene_nodelay_network.node[8].content_store 	decision_no[8] 	17703952
scalar abilene_nodelay_network.node[8].content_store 	decision_ratio[8] 	0.0068912532315809
scalar abilene_nodelay_network.node[8].content_store 	"representation_breakdown[8] 6661:568:147:109:175:" 	0
scalar abilene_nodelay_network.node[8].proactive_component 	hdistance[8].proactive_component 	2.338508060249
scalar abilene_nodelay_network.node[8].proactive_component 	downloads[8].proactive_component 	803263
scalar abilene_nodelay_network.node[8].proactive_component 	avg_time[8].proactive_component 	0
scalar abilene_nodelay_network.node[9].core_layer 	interests[9] 	25465964
scalar abilene_nodelay_network.node[9].core_layer 	repo_load[9] 	5385969
scalar abilene_nodelay_network.node[9].core_layer 	data[9] 	8016309
scalar abilene_nodelay_network.node[9].core_layer 	slots_sent[face$o[1]->client[9]] 	10271728769
scalar abilene_nodelay_network.node[9].core_layer 	slots_sent[face$o[2]->node[10]] 	482610432
scalar abilene_nodelay_network.node[9].core_layer 	slots_sent[face$o[3]->node[8]] 	587936051
scalar abilene_nodelay_network.node[9].content_store 	p_hit[9] 	0.47371801829297
scalar abilene_nodelay_network.node[9].content_store 	hits[9] 	12063686
scalar abilene_nodelay_network.node[9].content_store 	misses[9] 	13402278
scalar abilene_nodelay_network.node[9].content_store 	decision_yes[9] 	80255
scalar abilene_nodelay_network.node[9].content_store 	decision_no[9] 	13322023
scalar abilene_nodelay_network.node[9].content_store 	decision_ratio[9] 	0.0059881611170877
scalar abilene_nodelay_network.node[9].content_store 	"representation_breakdown[9] 6674:482:162:100:191:" 	0
scalar abilene_nodelay_network.node[9].proactive_component 	hdistance[9].proactive_component 	2.4914890392136
scalar abilene_nodelay_network.node[9].proactive_component 	downloads[9].proactive_component 	606982
scalar abilene_nodelay_network.node[9].proactive_component 	avg_time[9].proactive_component 	0
scalar abilene_nodelay_network.node[10].core_layer 	interests[10] 	25001390
scalar abilene_nodelay_network.node[10].core_layer 	repo_load[10] 	6042235
scalar abilene_nodelay_network.node[10].core_layer 	data[10] 	7339450
scalar abilene_nodelay_network.node[10].core_layer 	slots_sent[face$o[1]->client[10]] 	9830545926
scalar abilene_nodelay_network.node[10].core_layer 	slots_sent[face$o[2]->node[0]] 	173430417
scalar abilene_nodelay_network.node[10].core_layer 	slots_sent[face$o[3]->node[1]] 	400366110
scalar abilene_nodelay_network.node[10].core_layer 	slots_sent[face$o[4]->node[9]] 	401320906
scalar abilene_nodelay_network.node[10].content_store 	p_hit[10] 	0.46476235921283
scalar abilene_nodelay_network.node[10].content_store 	hits[10] 	11619705
scalar abilene_nodelay_network.node[10].content_store 	misses[10] 	13381685
scalar abilene_nodelay_network.node[10].content_store 	decision_yes[10] 	73054
scalar abilene_nodelay_network.node[10].content_store 	decision_no[10] 	13308631
scalar abilene_nodelay_network.node[10].content_store 	decision_ratio[10] 	0.005459252702481
scalar abilene_nodelay_network.node[10].content_store 	"representation_breakdown[10] 6394:493:174:100:207:" 	0
scalar abilene_nodelay_network.node[10].proactive_component 	hdistance[10].proactive_component 	2.4248727671313
scalar abilene_nodelay_network.node[10].proactive_component 	downloads[10].proactive_component 	605779
scalar abilene_nodelay_network.node[10].proactive_component 	avg_time[10].proactive_component 	0
scalar abilene_nodelay_network.client[0] 	hdistance[0].real 	0.92122798757221
scalar abilene_nodelay_network.client[0] 	downloads[0].real 	17997674
scalar abilene_nodelay_network.client[0] 	avg_time[0].real 	0
scalar abilene_nodelay_network.client[1] 	hdistance[1].real 	0.89939888213328
scalar abilene_nodelay_network.client[1] 	downloads[1].real 	17997136
scalar abilene_nodelay_network.client[1] 	avg_time[1].real 	0
scalar abilene_nodelay_network.client[2] 	hdistance[2].real 	0.8493346315806
scalar abilene_nodelay_network.client[2] 	downloads[2].real 	17996571
scalar abilene_nodelay_network.client[2] 	avg_time[2].real 	0
scalar abilene_nodelay_network.client[3] 	hdistance[3].real 	0.81987408107493
scalar abilene_nodelay_network.client[3] 	downloads[3].real 	17999836
scalar abilene_nodelay_network.client[3] 	avg_time[3].real 	0
scalar abilene_nodelay_network.client[4] 	hdistance[4].real 	0.89753659066283
scalar abilene_nodelay_network.client[4] 	downloads[4].real 	18003910
scalar abilene_nodelay_network.client[4] 	avg_time[4].real 	0
scalar abilene_nodelay_network.client[5] 	hdistance[5].real 	0.99226473518775
scalar abilene_nodelay_network.client[5] 	downloads[5].real 	17998091
scalar abilene_nodelay_network.client[5] 	avg_time[5].real 	0
scalar abilene_nodelay_network.client[6] 	hdistance[6].real 	0.89262314751038
scalar abilene_nodelay_network.client[6] 	downloads[6].real 	18002800
scalar abilene_nodelay_network.client[6] 	avg_time[6].real 	0
scalar abilene_nodelay_network.client[7] 	hdistance[7].real 	0.79949689592644
scalar abilene_nodelay_network.client[7] 	downloads[7].real 	17996674
scalar abilene_nodelay_network.client[7] 	avg_time[7].real 	0
scalar abilene_nodelay_network.client[8] 	hdistance[8].real 	0.78541591529595
scalar abilene_nodelay_network.client[8] 	downloads[8].real 	17994890
scalar abilene_nodelay_network.client[8] 	avg_time[8].real 	0
scalar abilene_nodelay_network.client[9] 	hdistance[9].real 	0.8587155736989
scalar abilene_nodelay_network.client[9] 	downloads[9].real 	17998884
scalar abilene_nodelay_network.client[9] 	avg_time[9].real 	0
scalar abilene_nodelay_network.client[10] 	hdistance[10].real 	0.8995955730726
scalar abilene_nodelay_network.client[10] 	downloads[10].real 	17993609
scalar abilene_nodelay_network.client[10] 	avg_time[10].real 	0
