version 2
run General-118-20150313-18:12:47-31868
attr D fix0.01
attr F nrr
attr R lru
attr a 1
attr configname General
attr csize 1e3
attr ctlg 1e5
attr datetime 20150313-18:12:47
attr experiment General
attr inifile omnetpp.ini
attr iterationvars "$rep=38, $net=cost_scenario, $lambda=100, $a=1, $ctlg=1e5, $F=nrr, $ttl=10, $D=fix0.01, $R=lru, $csize=1e3, $window=60, $variance=0.05, $mytime=1800, $kappa=1, $priceratiovalue=10, $splits=0.333_0.333_0.334, $pricebits=0"
attr iterationvars2 "$rep=38, $net=cost_scenario, $lambda=100, $a=1, $ctlg=1e5, $F=nrr, $ttl=10, $D=fix0.01, $R=lru, $csize=1e3, $window=60, $variance=0.05, $mytime=1800, $kappa=1, $priceratiovalue=10, $splits=0.333_0.333_0.334, $pricebits=0, $repetition=0"
attr kappa 1
attr lambda 100
attr measurement "$rep=38, $net=cost_scenario, $lambda=100, $a=1, $ctlg=1e5, $F=nrr, $ttl=10, $D=fix0.01, $R=lru, $csize=1e3, $window=60, $variance=0.05, $mytime=1800, $kappa=1, $priceratiovalue=10, $splits=0.333_0.333_0.334, $pricebits=0"
attr mytime 1800
attr net cost_scenario
attr network networks.${net=cost_scenario}_network
attr pricebits 0
attr priceratiovalue 10
attr processid 31868
attr rep 38
attr repetition 0
attr replication #0
attr resultdir results
attr runnumber 118
attr seedset 38
attr splits 0.333_0.333_0.334
attr ttl 10
attr variance 0.05
attr window 60

scalar . 	a 	1
scalar . 	csize 	1e3
scalar . 	ctlg 	1e5
scalar . 	kappa 	1
scalar . 	lambda 	100
scalar . 	mytime 	1800
scalar . 	pricebits 	0
scalar . 	priceratiovalue 	10
scalar . 	rep 	38
scalar . 	ttl 	10
scalar . 	variance 	0.05
scalar . 	window 	60
scalar cost_scenario_network.content_distribution 	repo-0 	1
scalar cost_scenario_network.content_distribution 	repo-1 	2
scalar cost_scenario_network.content_distribution 	repo-2 	3
scalar cost_scenario_network.content_distribution 	client-0 	0
scalar cost_scenario_network.content_distribution 	repo-0_card 	33685
scalar cost_scenario_network.content_distribution 	repo-0_price 	0
scalar cost_scenario_network.content_distribution 	repo-1_card 	32993
scalar cost_scenario_network.content_distribution 	repo-1_price 	1
scalar cost_scenario_network.content_distribution 	repo-2_card 	33322
scalar cost_scenario_network.content_distribution 	repo-2_price 	10
scalar cost_scenario_network.statistics 	repo_popularity[0] 	0.38967324504386
scalar cost_scenario_network.statistics 	repo_popularity[1] 	0.32772728877412
scalar cost_scenario_network.statistics 	repo_popularity[2] 	0.28259946618203
scalar cost_scenario_network.statistics 	stabilization_time 	1778.3
scalar cost_scenario_network.statistics 	p_hit 	0.37075129038425
scalar cost_scenario_network.statistics 	interests 	65387.5
scalar cost_scenario_network.statistics 	data 	20572.5
scalar cost_scenario_network.statistics 	hdistance 	0.91810777641415
scalar cost_scenario_network.statistics 	avg_time 	0
scalar cost_scenario_network.statistics 	downloads 	179260
scalar cost_scenario_network.statistics 	total_cost 	303681
scalar cost_scenario_network.statistics 	total_replicas 	100000
scalar cost_scenario_network.statistics 	inner_hit 	0.54094611179293
scalar cost_scenario_network.statistics 	interests_sent 	179260
scalar cost_scenario_network.node[0].core_layer 	interests[0] 	179260
scalar cost_scenario_network.node[0].core_layer 	data[0] 	82290
scalar cost_scenario_network.node[0].core_layer 	repo_int[0] 	82290
scalar cost_scenario_network.node[0].content_store 	p_hit[0] 	0.54094611179293
scalar cost_scenario_network.node[0].content_store 	hits[0] 	96970
scalar cost_scenario_network.node[0].content_store 	misses[0] 	82290
scalar cost_scenario_network.node[0].content_store 	decision_yes[0] 	825
scalar cost_scenario_network.node[0].content_store 	decision_no[0] 	81465
scalar cost_scenario_network.node[0].content_store 	decision_ratio[0] 	0.010025519504192
scalar cost_scenario_network.node[0].content_store 	cache_value[0] 	18.650984057707
scalar cost_scenario_network.node[0].content_store 	average_price_of_cache[0] 	3.7
scalar cost_scenario_network.node[1].core_layer 	interests[1] 	27603
scalar cost_scenario_network.node[1].core_layer 	repo_load[1] 	27603
scalar cost_scenario_network.node[1].core_layer 	data[1] 	0
scalar cost_scenario_network.node[1].content_store 	p_hit[1] 	0
scalar cost_scenario_network.node[1].content_store 	hits[1] 	0
scalar cost_scenario_network.node[1].content_store 	misses[1] 	27603
scalar cost_scenario_network.node[1].content_store 	decision_yes[1] 	0
scalar cost_scenario_network.node[1].content_store 	decision_no[1] 	27603
scalar cost_scenario_network.node[1].content_store 	decision_ratio[1] 	0
scalar cost_scenario_network.node[1].content_store 	cache_value[1] 	1.7223420900888e-316
scalar cost_scenario_network.node[1].content_store 	average_price_of_cache[1] 	-nan
scalar cost_scenario_network.node[2].core_layer 	interests[2] 	27021
scalar cost_scenario_network.node[2].core_layer 	repo_load[2] 	27021
scalar cost_scenario_network.node[2].core_layer 	data[2] 	0
scalar cost_scenario_network.node[2].content_store 	p_hit[2] 	0
scalar cost_scenario_network.node[2].content_store 	hits[2] 	0
scalar cost_scenario_network.node[2].content_store 	misses[2] 	27021
scalar cost_scenario_network.node[2].content_store 	decision_yes[2] 	0
scalar cost_scenario_network.node[2].content_store 	decision_no[2] 	27021
scalar cost_scenario_network.node[2].content_store 	decision_ratio[2] 	0
scalar cost_scenario_network.node[2].content_store 	cache_value[2] 	1.7225009816005e-316
scalar cost_scenario_network.node[2].content_store 	average_price_of_cache[2] 	-nan
scalar cost_scenario_network.node[3].core_layer 	interests[3] 	27666
scalar cost_scenario_network.node[3].core_layer 	repo_load[3] 	27666
scalar cost_scenario_network.node[3].core_layer 	data[3] 	0
scalar cost_scenario_network.node[3].content_store 	p_hit[3] 	0
scalar cost_scenario_network.node[3].content_store 	hits[3] 	0
scalar cost_scenario_network.node[3].content_store 	misses[3] 	27666
scalar cost_scenario_network.node[3].content_store 	decision_yes[3] 	0
scalar cost_scenario_network.node[3].content_store 	decision_no[3] 	27666
scalar cost_scenario_network.node[3].content_store 	decision_ratio[3] 	0
scalar cost_scenario_network.node[3].content_store 	cache_value[3] 	1.7226598731122e-316
scalar cost_scenario_network.node[3].content_store 	average_price_of_cache[3] 	-nan
scalar cost_scenario_network.client[0] 	hdistance[0] 	0.91810777641415
scalar cost_scenario_network.client[0] 	downloads[0] 	179260
scalar cost_scenario_network.client[0] 	avg_time[0] 	0
scalar cost_scenario_network.client[0] 	interests_sent[0] 	179260
