version 2
run General-1228-20140508-17:06:47-22227
attr D costprobprodcorr0.01
attr F nrr
attr R lru
attr a 1.5
attr configname General
attr csize 1e3
attr ctlg 1e5
attr datetime 20140508-17:06:47
attr experiment General
attr inifile omnetpp.ini
attr iterationvars "$net=one_cache_scenario_3_links, $rep=11, $priceratiovalue=10, $weights=0.333_0.333_0.334, $a=1.5, $ctlg=1e5, $F=nrr, $ttl=1000, $D=costprobprodcorr0.01, $xi=1.1, $R=lru, $csize=1e3"
attr iterationvars2 "$net=one_cache_scenario_3_links, $rep=11, $priceratiovalue=10, $weights=0.333_0.333_0.334, $a=1.5, $ctlg=1e5, $F=nrr, $ttl=1000, $D=costprobprodcorr0.01, $xi=1.1, $R=lru, $csize=1e3, $repetition=0"
attr measurement "$net=one_cache_scenario_3_links, $rep=11, $priceratiovalue=10, $weights=0.333_0.333_0.334, $a=1.5, $ctlg=1e5, $F=nrr, $ttl=1000, $D=costprobprodcorr0.01, $xi=1.1, $R=lru, $csize=1e3"
attr net one_cache_scenario_3_links
attr network networks.${net=one_cache_scenario_3_links}_network
attr priceratiovalue 10
attr processid 22227
attr rep 11
attr repetition 0
attr replication #0
attr resultdir results
attr runnumber 1228
attr seedset 11
attr ttl 1000
attr weights 0.333_0.333_0.334
attr xi 1.1

scalar . 	a 	1.5
scalar . 	csize 	1e3
scalar . 	ctlg 	1e5
scalar . 	priceratiovalue 	10
scalar . 	rep 	11
scalar . 	ttl 	1000
scalar . 	xi 	1.1
scalar one_cache_scenario_3_links_network.content_distribution 	repo-0 	4
scalar one_cache_scenario_3_links_network.content_distribution 	repo-1 	5
scalar one_cache_scenario_3_links_network.content_distribution 	repo-2 	6
scalar one_cache_scenario_3_links_network.content_distribution 	client-0 	0
scalar one_cache_scenario_3_links_network.content_distribution 	repo-0_card 	33093
scalar one_cache_scenario_3_links_network.content_distribution 	repo-1_card 	33554
scalar one_cache_scenario_3_links_network.content_distribution 	repo-2_card 	33353
scalar one_cache_scenario_3_links_network.statistics 	p_hit 	0.14593588824442
scalar one_cache_scenario_3_links_network.statistics 	interests 	59579
scalar one_cache_scenario_3_links_network.statistics 	data 	33922.857142857
scalar one_cache_scenario_3_links_network.statistics 	hdistance 	1.3222118902184
scalar one_cache_scenario_3_links_network.statistics 	avg_time 	0
scalar one_cache_scenario_3_links_network.statistics 	downloads 	179593
scalar one_cache_scenario_3_links_network.statistics 	total_cost 	13156
scalar one_cache_scenario_3_links_network.statistics 	total_replicas 	100000
scalar one_cache_scenario_3_links_network.statistics 	interests_sent 	179593
scalar one_cache_scenario_3_links_network.node[0].core_layer 	interests[0] 	179593
scalar one_cache_scenario_3_links_network.node[0].core_layer 	data[0] 	118730
scalar one_cache_scenario_3_links_network.node[0].core_layer 	repo_int[0] 	118730
scalar one_cache_scenario_3_links_network.node[0].content_store 	p_hit[0] 	0.33889405489078
scalar one_cache_scenario_3_links_network.node[0].content_store 	hits[0] 	60863
scalar one_cache_scenario_3_links_network.node[0].content_store 	misses[0] 	118730
scalar one_cache_scenario_3_links_network.node[0].content_store 	decision_yes[0] 	47
scalar one_cache_scenario_3_links_network.node[0].content_store 	decision_no[0] 	118683
scalar one_cache_scenario_3_links_network.node[0].content_store 	decision_ratio[0] 	0.00039585614419271
scalar one_cache_scenario_3_links_network.node[0].content_store 	correction_factor[0] 	0.0022037057679569
scalar one_cache_scenario_3_links_network.node[0].content_store 	xi[0] 	1.1
scalar one_cache_scenario_3_links_network.node[1].core_layer 	interests[1] 	114934
scalar one_cache_scenario_3_links_network.node[1].core_layer 	data[1] 	114934
scalar one_cache_scenario_3_links_network.node[1].content_store 	p_hit[1] 	0
scalar one_cache_scenario_3_links_network.node[1].content_store 	hits[1] 	0
scalar one_cache_scenario_3_links_network.node[1].content_store 	misses[1] 	114934
scalar one_cache_scenario_3_links_network.node[1].content_store 	decision_yes[1] 	0
scalar one_cache_scenario_3_links_network.node[1].content_store 	decision_no[1] 	114934
scalar one_cache_scenario_3_links_network.node[1].content_store 	decision_ratio[1] 	0
scalar one_cache_scenario_3_links_network.node[2].core_layer 	interests[2] 	2756
scalar one_cache_scenario_3_links_network.node[2].core_layer 	data[2] 	2756
scalar one_cache_scenario_3_links_network.node[2].content_store 	p_hit[2] 	0
scalar one_cache_scenario_3_links_network.node[2].content_store 	hits[2] 	0
scalar one_cache_scenario_3_links_network.node[2].content_store 	misses[2] 	2756
scalar one_cache_scenario_3_links_network.node[2].content_store 	decision_yes[2] 	0
scalar one_cache_scenario_3_links_network.node[2].content_store 	decision_no[2] 	2756
scalar one_cache_scenario_3_links_network.node[2].content_store 	decision_ratio[2] 	0
scalar one_cache_scenario_3_links_network.node[3].core_layer 	interests[3] 	1040
scalar one_cache_scenario_3_links_network.node[3].core_layer 	data[3] 	1040
scalar one_cache_scenario_3_links_network.node[3].content_store 	p_hit[3] 	0
scalar one_cache_scenario_3_links_network.node[3].content_store 	hits[3] 	0
scalar one_cache_scenario_3_links_network.node[3].content_store 	misses[3] 	1040
scalar one_cache_scenario_3_links_network.node[3].content_store 	decision_yes[3] 	0
scalar one_cache_scenario_3_links_network.node[3].content_store 	decision_no[3] 	1040
scalar one_cache_scenario_3_links_network.node[3].content_store 	decision_ratio[3] 	0
scalar one_cache_scenario_3_links_network.node[4].core_layer 	interests[4] 	114934
scalar one_cache_scenario_3_links_network.node[4].core_layer 	repo_load[4] 	114934
scalar one_cache_scenario_3_links_network.node[4].core_layer 	data[4] 	0
scalar one_cache_scenario_3_links_network.node[4].content_store 	p_hit[4] 	0
scalar one_cache_scenario_3_links_network.node[4].content_store 	hits[4] 	0
scalar one_cache_scenario_3_links_network.node[4].content_store 	misses[4] 	114934
scalar one_cache_scenario_3_links_network.node[4].content_store 	decision_yes[4] 	0
scalar one_cache_scenario_3_links_network.node[4].content_store 	decision_no[4] 	114934
scalar one_cache_scenario_3_links_network.node[4].content_store 	decision_ratio[4] 	0
scalar one_cache_scenario_3_links_network.node[5].core_layer 	interests[5] 	2756
scalar one_cache_scenario_3_links_network.node[5].core_layer 	repo_load[5] 	2756
scalar one_cache_scenario_3_links_network.node[5].core_layer 	data[5] 	0
scalar one_cache_scenario_3_links_network.node[5].content_store 	p_hit[5] 	0
scalar one_cache_scenario_3_links_network.node[5].content_store 	hits[5] 	0
scalar one_cache_scenario_3_links_network.node[5].content_store 	misses[5] 	2756
scalar one_cache_scenario_3_links_network.node[5].content_store 	decision_yes[5] 	0
scalar one_cache_scenario_3_links_network.node[5].content_store 	decision_no[5] 	2756
scalar one_cache_scenario_3_links_network.node[5].content_store 	decision_ratio[5] 	0
scalar one_cache_scenario_3_links_network.node[6].core_layer 	interests[6] 	1040
scalar one_cache_scenario_3_links_network.node[6].core_layer 	repo_load[6] 	1040
scalar one_cache_scenario_3_links_network.node[6].core_layer 	data[6] 	0
scalar one_cache_scenario_3_links_network.node[6].content_store 	p_hit[6] 	0
scalar one_cache_scenario_3_links_network.node[6].content_store 	hits[6] 	0
scalar one_cache_scenario_3_links_network.node[6].content_store 	misses[6] 	1040
scalar one_cache_scenario_3_links_network.node[6].content_store 	decision_yes[6] 	0
scalar one_cache_scenario_3_links_network.node[6].content_store 	decision_no[6] 	1040
scalar one_cache_scenario_3_links_network.node[6].content_store 	decision_ratio[6] 	0
scalar one_cache_scenario_3_links_network.client[0] 	hdistance[0] 	1.3222118902184
scalar one_cache_scenario_3_links_network.client[0] 	downloads[0] 	179593
scalar one_cache_scenario_3_links_network.client[0] 	avg_time[0] 	0
scalar one_cache_scenario_3_links_network.client[0] 	interests_sent[0] 	179593
