version 2
run General-16-20141007-11:27:39-15351
attr D fix0.1
attr F nrr
attr R lru
attr a 1
attr configname General
attr csize 1e3
attr ctlg 1e5
attr datetime 20141007-11:27:39
attr experiment General
attr inifile omnetpp.ini
attr iterationvars "$net=abilene_cost, $rep=2, $priceratiovalue=10, $weights=0.333_0.333_0.334, $lambda=100, $a=1, $ctlg=1e5, $F=nrr, $ttl=10, $D=fix0.1, $xi=1, $R=lru, $csize=1e3, $pricebits=0, $window=60, $variance=0.05, $mytime=1800"
attr iterationvars2 "$net=abilene_cost, $rep=2, $priceratiovalue=10, $weights=0.333_0.333_0.334, $lambda=100, $a=1, $ctlg=1e5, $F=nrr, $ttl=10, $D=fix0.1, $xi=1, $R=lru, $csize=1e3, $pricebits=0, $window=60, $variance=0.05, $mytime=1800, $repetition=0"
attr lambda 100
attr measurement "$net=abilene_cost, $rep=2, $priceratiovalue=10, $weights=0.333_0.333_0.334, $lambda=100, $a=1, $ctlg=1e5, $F=nrr, $ttl=10, $D=fix0.1, $xi=1, $R=lru, $csize=1e3, $pricebits=0, $window=60, $variance=0.05, $mytime=1800"
attr mytime 1800
attr net abilene_cost
attr network networks.${net=abilene_cost,geant_cost}_network
attr pricebits 0
attr priceratiovalue 10
attr processid 15351
attr rep 2
attr repetition 0
attr replication #0
attr resultdir results
attr runnumber 16
attr seedset 2
attr ttl 10
attr variance 0.05
attr weights 0.333_0.333_0.334
attr window 60
attr xi 1

scalar . 	a 	1
scalar . 	csize 	1e3
scalar . 	ctlg 	1e5
scalar . 	lambda 	100
scalar . 	mytime 	1800
scalar . 	pricebits 	0
scalar . 	priceratiovalue 	10
scalar . 	rep 	2
scalar . 	ttl 	10
scalar . 	variance 	0.05
scalar . 	window 	60
scalar . 	xi 	1
scalar abilene_cost_network.content_distribution 	repo-0 	4
scalar abilene_cost_network.content_distribution 	repo-1 	9
scalar abilene_cost_network.content_distribution 	repo-2 	6
scalar abilene_cost_network.content_distribution 	client-0 	3
scalar abilene_cost_network.content_distribution 	client-1 	7
scalar abilene_cost_network.content_distribution 	client-2 	9
scalar abilene_cost_network.content_distribution 	repo-0_card 	33329
scalar abilene_cost_network.content_distribution 	repo-0_price 	1
scalar abilene_cost_network.content_distribution 	repo-1_card 	33052
scalar abilene_cost_network.content_distribution 	repo-1_price 	10
scalar abilene_cost_network.content_distribution 	repo-2_card 	33619
scalar abilene_cost_network.content_distribution 	repo-2_price 	0
scalar abilene_cost_network.statistics 	repo_popularity[0] 	0.33984204835506
scalar abilene_cost_network.statistics 	repo_popularity[1] 	0.39407385110283
scalar abilene_cost_network.statistics 	repo_popularity[2] 	0.26608410054213
scalar abilene_cost_network.statistics 	stabilization_time 	36060
scalar abilene_cost_network.statistics 	p_hit 	0.19978186677497
scalar abilene_cost_network.statistics 	interests 	111024.72727273
scalar abilene_cost_network.statistics 	data 	61941.636363636
scalar abilene_cost_network.statistics 	hdistance 	1.8105591642761
scalar abilene_cost_network.statistics 	avg_time 	0.009206464283
scalar abilene_cost_network.statistics 	downloads 	539756
scalar abilene_cost_network.statistics 	total_cost 	1176420
scalar abilene_cost_network.statistics 	total_replicas 	100000
scalar abilene_cost_network.statistics 	inner_hit 	0.45211910566997
scalar abilene_cost_network.node[0].core_layer 	interests[0] 	0
scalar abilene_cost_network.node[0].core_layer 	data[0] 	0
scalar abilene_cost_network.node[0].core_layer 	repo_int[0] 	295722
scalar abilene_cost_network.node[0].content_store 	p_hit[0] 	-nan
scalar abilene_cost_network.node[0].content_store 	hits[0] 	0
scalar abilene_cost_network.node[0].content_store 	misses[0] 	0
scalar abilene_cost_network.node[0].content_store 	decision_yes[0] 	0
scalar abilene_cost_network.node[0].content_store 	decision_no[0] 	0
scalar abilene_cost_network.node[0].content_store 	decision_ratio[0] 	0
scalar abilene_cost_network.node[1].core_layer 	interests[1] 	0
scalar abilene_cost_network.node[1].core_layer 	data[1] 	0
scalar abilene_cost_network.node[1].content_store 	p_hit[1] 	-nan
scalar abilene_cost_network.node[1].content_store 	hits[1] 	0
scalar abilene_cost_network.node[1].content_store 	misses[1] 	0
scalar abilene_cost_network.node[1].content_store 	decision_yes[1] 	0
scalar abilene_cost_network.node[1].content_store 	decision_no[1] 	0
scalar abilene_cost_network.node[1].content_store 	decision_ratio[1] 	0
scalar abilene_cost_network.node[2].core_layer 	interests[2] 	86855
scalar abilene_cost_network.node[2].core_layer 	data[2] 	73442
scalar abilene_cost_network.node[2].content_store 	p_hit[2] 	0.15442979678775
scalar abilene_cost_network.node[2].content_store 	hits[2] 	13413
scalar abilene_cost_network.node[2].content_store 	misses[2] 	73442
scalar abilene_cost_network.node[2].content_store 	decision_yes[2] 	7379
scalar abilene_cost_network.node[2].content_store 	decision_no[2] 	66063
scalar abilene_cost_network.node[2].content_store 	decision_ratio[2] 	0.10047384330492
scalar abilene_cost_network.node[3].core_layer 	interests[3] 	258168
scalar abilene_cost_network.node[3].core_layer 	data[3] 	190595
scalar abilene_cost_network.node[3].content_store 	p_hit[3] 	0.26151963062812
scalar abilene_cost_network.node[3].content_store 	hits[3] 	67516
scalar abilene_cost_network.node[3].content_store 	misses[3] 	190652
scalar abilene_cost_network.node[3].content_store 	decision_yes[3] 	18967
scalar abilene_cost_network.node[3].content_store 	decision_no[3] 	171627
scalar abilene_cost_network.node[3].content_store 	decision_ratio[3] 	0.099515199848893
scalar abilene_cost_network.node[4].core_layer 	interests[4] 	98125
scalar abilene_cost_network.node[4].core_layer 	repo_load[4] 	92290
scalar abilene_cost_network.node[4].core_layer 	data[4] 	0
scalar abilene_cost_network.node[4].content_store 	p_hit[4] 	0.059464968152866
scalar abilene_cost_network.node[4].content_store 	hits[4] 	5835
scalar abilene_cost_network.node[4].content_store 	misses[4] 	92290
scalar abilene_cost_network.node[4].content_store 	decision_yes[4] 	9216
scalar abilene_cost_network.node[4].content_store 	decision_no[4] 	83074
scalar abilene_cost_network.node[4].content_store 	decision_ratio[4] 	0.099859139668436
scalar abilene_cost_network.node[5].core_layer 	interests[5] 	0
scalar abilene_cost_network.node[5].core_layer 	data[5] 	0
scalar abilene_cost_network.node[5].content_store 	p_hit[5] 	-nan
scalar abilene_cost_network.node[5].content_store 	hits[5] 	0
scalar abilene_cost_network.node[5].content_store 	misses[5] 	0
scalar abilene_cost_network.node[5].content_store 	decision_yes[5] 	0
scalar abilene_cost_network.node[5].content_store 	decision_no[5] 	0
scalar abilene_cost_network.node[5].content_store 	decision_ratio[5] 	0
scalar abilene_cost_network.node[6].core_layer 	interests[6] 	102479
scalar abilene_cost_network.node[6].core_layer 	repo_load[6] 	95019
scalar abilene_cost_network.node[6].core_layer 	data[6] 	0
scalar abilene_cost_network.node[6].content_store 	p_hit[6] 	0.072795401984797
scalar abilene_cost_network.node[6].content_store 	hits[6] 	7460
scalar abilene_cost_network.node[6].content_store 	misses[6] 	95019
scalar abilene_cost_network.node[6].content_store 	decision_yes[6] 	9453
scalar abilene_cost_network.node[6].content_store 	decision_no[6] 	85566
scalar abilene_cost_network.node[6].content_store 	decision_ratio[6] 	0.099485366084678
scalar abilene_cost_network.node[7].core_layer 	interests[7] 	260994
scalar abilene_cost_network.node[7].core_layer 	data[7] 	189217
scalar abilene_cost_network.node[7].content_store 	p_hit[7] 	0.27474961110217
scalar abilene_cost_network.node[7].content_store 	hits[7] 	71708
scalar abilene_cost_network.node[7].content_store 	misses[7] 	189286
scalar abilene_cost_network.node[7].content_store 	decision_yes[7] 	19012
scalar abilene_cost_network.node[7].content_store 	decision_no[7] 	170205
scalar abilene_cost_network.node[7].content_store 	decision_ratio[7] 	0.10047722984721
scalar abilene_cost_network.node[8].core_layer 	interests[8] 	162909
scalar abilene_cost_network.node[8].core_layer 	data[8] 	147009
scalar abilene_cost_network.node[8].content_store 	p_hit[8] 	0.097477732967485
scalar abilene_cost_network.node[8].content_store 	hits[8] 	15880
scalar abilene_cost_network.node[8].content_store 	misses[8] 	147029
scalar abilene_cost_network.node[8].content_store 	decision_yes[8] 	14710
scalar abilene_cost_network.node[8].content_store 	decision_no[8] 	132298
scalar abilene_cost_network.node[8].content_store 	decision_ratio[8] 	0.10006258162821
scalar abilene_cost_network.node[9].core_layer 	interests[9] 	251742
scalar abilene_cost_network.node[9].core_layer 	repo_load[9] 	108413
scalar abilene_cost_network.node[9].core_layer 	data[9] 	81095
scalar abilene_cost_network.node[9].content_store 	p_hit[9] 	0.24698302230061
scalar abilene_cost_network.node[9].content_store 	hits[9] 	62176
scalar abilene_cost_network.node[9].content_store 	misses[9] 	189566
scalar abilene_cost_network.node[9].content_store 	decision_yes[9] 	18962
scalar abilene_cost_network.node[9].content_store 	decision_no[9] 	170546
scalar abilene_cost_network.node[9].content_store 	decision_ratio[9] 	0.10005910040737
scalar abilene_cost_network.node[10].core_layer 	interests[10] 	0
scalar abilene_cost_network.node[10].core_layer 	data[10] 	0
scalar abilene_cost_network.node[10].content_store 	p_hit[10] 	-nan
scalar abilene_cost_network.node[10].content_store 	hits[10] 	0
scalar abilene_cost_network.node[10].content_store 	misses[10] 	0
scalar abilene_cost_network.node[10].content_store 	decision_yes[10] 	0
scalar abilene_cost_network.node[10].content_store 	decision_no[10] 	0
scalar abilene_cost_network.node[10].content_store 	decision_ratio[10] 	0
scalar abilene_cost_network.client[3] 	hdistance[3] 	1.8179567631318
scalar abilene_cost_network.client[3] 	downloads[3] 	179754
scalar abilene_cost_network.client[3] 	avg_time[3] 	0.008198114625
scalar abilene_cost_network.client[7] 	hdistance[7] 	1.6115453531784
scalar abilene_cost_network.client[7] 	downloads[7] 	180263
scalar abilene_cost_network.client[7] 	avg_time[7] 	0.007410750743
scalar abilene_cost_network.client[9] 	hdistance[9] 	2.0021753765182
scalar abilene_cost_network.client[9] 	downloads[9] 	179739
scalar abilene_cost_network.client[9] 	avg_time[9] 	0.012010527482
