version 2
run General-16-20141007-11:27:19-516
attr D fix0.1
attr F nrr
attr R lru
attr a 1
attr configname General
attr csize 1e3
attr ctlg 1e5
attr datetime 20141007-11:27:19
attr experiment General
attr inifile omnetpp.ini
attr iterationvars "$net=abilene_cost, $rep=4, $priceratiovalue=10, $weights=0.333_0.333_0.334, $lambda=100, $a=1, $ctlg=1e5, $F=nrr, $ttl=10, $D=fix0.1, $xi=1, $R=lru, $csize=1e3, $pricebits=0, $window=60, $variance=0.05, $mytime=1800"
attr iterationvars2 "$net=abilene_cost, $rep=4, $priceratiovalue=10, $weights=0.333_0.333_0.334, $lambda=100, $a=1, $ctlg=1e5, $F=nrr, $ttl=10, $D=fix0.1, $xi=1, $R=lru, $csize=1e3, $pricebits=0, $window=60, $variance=0.05, $mytime=1800, $repetition=0"
attr lambda 100
attr measurement "$net=abilene_cost, $rep=4, $priceratiovalue=10, $weights=0.333_0.333_0.334, $lambda=100, $a=1, $ctlg=1e5, $F=nrr, $ttl=10, $D=fix0.1, $xi=1, $R=lru, $csize=1e3, $pricebits=0, $window=60, $variance=0.05, $mytime=1800"
attr mytime 1800
attr net abilene_cost
attr network networks.${net=abilene_cost,geant_cost}_network
attr pricebits 0
attr priceratiovalue 10
attr processid 516
attr rep 4
attr repetition 0
attr replication #0
attr resultdir results
attr runnumber 16
attr seedset 4
attr ttl 10
attr variance 0.05
attr weights 0.333_0.333_0.334
attr window 60
attr xi 1

scalar . 	a 	1
scalar . 	csize 	1e3
scalar . 	ctlg 	1e5
scalar . 	lambda 	100
scalar . 	mytime 	1800
scalar . 	pricebits 	0
scalar . 	priceratiovalue 	10
scalar . 	rep 	4
scalar . 	ttl 	10
scalar . 	variance 	0.05
scalar . 	window 	60
scalar . 	xi 	1
scalar abilene_cost_network.content_distribution 	repo-0 	2
scalar abilene_cost_network.content_distribution 	repo-1 	0
scalar abilene_cost_network.content_distribution 	repo-2 	10
scalar abilene_cost_network.content_distribution 	client-0 	6
scalar abilene_cost_network.content_distribution 	client-1 	2
scalar abilene_cost_network.content_distribution 	client-2 	4
scalar abilene_cost_network.content_distribution 	repo-0_card 	33274
scalar abilene_cost_network.content_distribution 	repo-0_price 	0
scalar abilene_cost_network.content_distribution 	repo-1_card 	33153
scalar abilene_cost_network.content_distribution 	repo-1_price 	1
scalar abilene_cost_network.content_distribution 	repo-2_card 	33573
scalar abilene_cost_network.content_distribution 	repo-2_price 	10
scalar abilene_cost_network.statistics 	repo_popularity[0] 	0.33945880017902
scalar abilene_cost_network.statistics 	repo_popularity[1] 	0.30988277584688
scalar abilene_cost_network.statistics 	repo_popularity[2] 	0.35065842397411
scalar abilene_cost_network.statistics 	stabilization_time 	356.9
scalar abilene_cost_network.statistics 	p_hit 	0.18356419978116
scalar abilene_cost_network.statistics 	interests 	130772.18181818
scalar abilene_cost_network.statistics 	data 	81699.181818182
scalar abilene_cost_network.statistics 	hdistance 	2.1756613161522
scalar abilene_cost_network.statistics 	avg_time 	0.010135179828
scalar abilene_cost_network.statistics 	downloads 	539682
scalar abilene_cost_network.statistics 	total_cost 	905619
scalar abilene_cost_network.statistics 	total_replicas 	100000
scalar abilene_cost_network.statistics 	inner_hit 	0.48936040112511
scalar abilene_cost_network.node[0].core_layer 	interests[0] 	87830
scalar abilene_cost_network.node[0].core_layer 	repo_load[0] 	84979
scalar abilene_cost_network.node[0].core_layer 	data[0] 	0
scalar abilene_cost_network.node[0].core_layer 	repo_int[0] 	275583
scalar abilene_cost_network.node[0].content_store 	p_hit[0] 	0.032460434931117
scalar abilene_cost_network.node[0].content_store 	hits[0] 	2851
scalar abilene_cost_network.node[0].content_store 	misses[0] 	84979
scalar abilene_cost_network.node[0].content_store 	decision_yes[0] 	8591
scalar abilene_cost_network.node[0].content_store 	decision_no[0] 	76388
scalar abilene_cost_network.node[0].content_store 	decision_ratio[0] 	0.10109556478659
scalar abilene_cost_network.node[1].core_layer 	interests[1] 	147912
scalar abilene_cost_network.node[1].core_layer 	data[1] 	144307
scalar abilene_cost_network.node[1].content_store 	p_hit[1] 	0.024372599924279
scalar abilene_cost_network.node[1].content_store 	hits[1] 	3605
scalar abilene_cost_network.node[1].content_store 	misses[1] 	144307
scalar abilene_cost_network.node[1].content_store 	decision_yes[1] 	14603
scalar abilene_cost_network.node[1].content_store 	decision_no[1] 	129704
scalar abilene_cost_network.node[1].content_store 	decision_ratio[1] 	0.1011939822739
scalar abilene_cost_network.node[2].core_layer 	interests[2] 	339969
scalar abilene_cost_network.node[2].core_layer 	repo_load[2] 	108540
scalar abilene_cost_network.node[2].core_layer 	data[2] 	176064
scalar abilene_cost_network.node[2].content_store 	p_hit[2] 	0.16265306542655
scalar abilene_cost_network.node[2].content_store 	hits[2] 	55297
scalar abilene_cost_network.node[2].content_store 	misses[2] 	284672
scalar abilene_cost_network.node[2].content_store 	decision_yes[2] 	28406
scalar abilene_cost_network.node[2].content_store 	decision_no[2] 	256198
scalar abilene_cost_network.node[2].content_store 	decision_ratio[2] 	0.099808857219154
scalar abilene_cost_network.node[3].core_layer 	interests[3] 	188155
scalar abilene_cost_network.node[3].core_layer 	data[3] 	176102
scalar abilene_cost_network.node[3].content_store 	p_hit[3] 	0.064005739948447
scalar abilene_cost_network.node[3].content_store 	hits[3] 	12043
scalar abilene_cost_network.node[3].content_store 	misses[3] 	176112
scalar abilene_cost_network.node[3].content_store 	decision_yes[3] 	17586
scalar abilene_cost_network.node[3].content_store 	decision_no[3] 	158516
scalar abilene_cost_network.node[3].content_store 	decision_ratio[3] 	0.099862579641344
scalar abilene_cost_network.node[4].core_layer 	interests[4] 	193070
scalar abilene_cost_network.node[4].core_layer 	data[4] 	122114
scalar abilene_cost_network.node[4].content_store 	p_hit[4] 	0.36727611747035
scalar abilene_cost_network.node[4].content_store 	hits[4] 	70910
scalar abilene_cost_network.node[4].content_store 	misses[4] 	122160
scalar abilene_cost_network.node[4].content_store 	decision_yes[4] 	12209
scalar abilene_cost_network.node[4].content_store 	decision_no[4] 	109905
scalar abilene_cost_network.node[4].content_store 	decision_ratio[4] 	0.099980346233847
scalar abilene_cost_network.node[5].core_layer 	interests[5] 	36978
scalar abilene_cost_network.node[5].core_layer 	data[5] 	3386
scalar abilene_cost_network.node[5].content_store 	p_hit[5] 	0.90843204067283
scalar abilene_cost_network.node[5].content_store 	hits[5] 	33592
scalar abilene_cost_network.node[5].content_store 	misses[5] 	3386
scalar abilene_cost_network.node[5].content_store 	decision_yes[5] 	359
scalar abilene_cost_network.node[5].content_store 	decision_no[5] 	3027
scalar abilene_cost_network.node[5].content_store 	decision_ratio[5] 	0.10602480803308
scalar abilene_cost_network.node[6].core_layer 	interests[6] 	182507
scalar abilene_cost_network.node[6].core_layer 	data[6] 	118175
scalar abilene_cost_network.node[6].content_store 	p_hit[6] 	0.35229881593583
scalar abilene_cost_network.node[6].content_store 	hits[6] 	64297
scalar abilene_cost_network.node[6].content_store 	misses[6] 	118210
scalar abilene_cost_network.node[6].content_store 	decision_yes[6] 	11809
scalar abilene_cost_network.node[6].content_store 	decision_no[6] 	106366
scalar abilene_cost_network.node[6].content_store 	decision_ratio[6] 	0.099928072773429
scalar abilene_cost_network.node[7].core_layer 	interests[7] 	105884
scalar abilene_cost_network.node[7].core_layer 	data[7] 	99050
scalar abilene_cost_network.node[7].content_store 	p_hit[7] 	0.06453288504401
scalar abilene_cost_network.node[7].content_store 	hits[7] 	6833
scalar abilene_cost_network.node[7].content_store 	misses[7] 	99051
scalar abilene_cost_network.node[7].content_store 	decision_yes[7] 	9893
scalar abilene_cost_network.node[7].content_store 	decision_no[7] 	89157
scalar abilene_cost_network.node[7].content_store 	decision_ratio[7] 	0.099878849066128
scalar abilene_cost_network.node[8].core_layer 	interests[8] 	40219
scalar abilene_cost_network.node[8].core_layer 	data[8] 	31336
scalar abilene_cost_network.node[8].content_store 	p_hit[8] 	0.22076630448296
scalar abilene_cost_network.node[8].content_store 	hits[8] 	8879
scalar abilene_cost_network.node[8].content_store 	misses[8] 	31340
scalar abilene_cost_network.node[8].content_store 	decision_yes[8] 	3276
scalar abilene_cost_network.node[8].content_store 	decision_no[8] 	28060
scalar abilene_cost_network.node[8].content_store 	decision_ratio[8] 	0.10454429410263
scalar abilene_cost_network.node[9].core_layer 	interests[9] 	31336
scalar abilene_cost_network.node[9].core_layer 	data[9] 	28157
scalar abilene_cost_network.node[9].content_store 	p_hit[9] 	0.10144881286699
scalar abilene_cost_network.node[9].content_store 	hits[9] 	3179
scalar abilene_cost_network.node[9].content_store 	misses[9] 	28157
scalar abilene_cost_network.node[9].content_store 	decision_yes[9] 	2803
scalar abilene_cost_network.node[9].content_store 	decision_no[9] 	25354
scalar abilene_cost_network.node[9].content_store 	decision_ratio[9] 	0.099548957630429
scalar abilene_cost_network.node[10].core_layer 	interests[10] 	84634
scalar abilene_cost_network.node[10].core_layer 	repo_load[10] 	82064
scalar abilene_cost_network.node[10].core_layer 	data[10] 	0
scalar abilene_cost_network.node[10].content_store 	p_hit[10] 	0.030366046742444
scalar abilene_cost_network.node[10].content_store 	hits[10] 	2570
scalar abilene_cost_network.node[10].content_store 	misses[10] 	82064
scalar abilene_cost_network.node[10].content_store 	decision_yes[10] 	8284
scalar abilene_cost_network.node[10].content_store 	decision_no[10] 	73780
scalar abilene_cost_network.node[10].content_store 	decision_ratio[10] 	0.10094560343147
scalar abilene_cost_network.client[2] 	hdistance[2] 	1.4470205126778
scalar abilene_cost_network.client[2] 	downloads[2] 	179645
scalar abilene_cost_network.client[2] 	avg_time[2] 	0.006537913427
scalar abilene_cost_network.client[4] 	hdistance[4] 	2.3688066062867
scalar abilene_cost_network.client[4] 	downloads[4] 	180192
scalar abilene_cost_network.client[4] 	avg_time[4] 	0.009837933503
scalar abilene_cost_network.client[6] 	hdistance[6] 	2.711156829492
scalar abilene_cost_network.client[6] 	downloads[6] 	179845
scalar abilene_cost_network.client[6] 	avg_time[6] 	0.014029692554
