version 2
run General-5-20140627-14:26:25-21895
attr D lce
attr F nrr
attr R lru
attr a 1
attr configname General
attr csize 1e3
attr ctlg 1e5
attr datetime 20140627-14:26:25
attr experiment General
attr inifile omnetpp.ini
attr iterationvars "$net=abilene_cost, $rep=1, $priceratiovalue=10, $weights=0.333_0.333_0.334, $lambda=100, $a=1, $ctlg=1e5, $F=nrr, $ttl=1000, $D=lce, $xi=1, $R=lru, $csize=1e3, $pricebits=0, $window=600, $variance=0.005, $mytime=1800"
attr iterationvars2 "$net=abilene_cost, $rep=1, $priceratiovalue=10, $weights=0.333_0.333_0.334, $lambda=100, $a=1, $ctlg=1e5, $F=nrr, $ttl=1000, $D=lce, $xi=1, $R=lru, $csize=1e3, $pricebits=0, $window=600, $variance=0.005, $mytime=1800, $repetition=0"
attr lambda 100
attr measurement "$net=abilene_cost, $rep=1, $priceratiovalue=10, $weights=0.333_0.333_0.334, $lambda=100, $a=1, $ctlg=1e5, $F=nrr, $ttl=1000, $D=lce, $xi=1, $R=lru, $csize=1e3, $pricebits=0, $window=600, $variance=0.005, $mytime=1800"
attr mytime 1800
attr net abilene_cost
attr network "networks.${net=geant_cost, abilene_cost}_network"
attr pricebits 0
attr priceratiovalue 10
attr processid 21895
attr rep 1
attr repetition 0
attr replication #0
attr resultdir results
attr runnumber 5
attr seedset 1
attr ttl 1000
attr variance 0.005
attr weights 0.333_0.333_0.334
attr window 600
attr xi 1

scalar . 	a 	1
scalar . 	csize 	1e3
scalar . 	ctlg 	1e5
scalar . 	lambda 	100
scalar . 	mytime 	1800
scalar . 	pricebits 	0
scalar . 	priceratiovalue 	10
scalar . 	rep 	1
scalar . 	ttl 	1000
scalar . 	variance 	0.005
scalar . 	window 	600
scalar . 	xi 	1
scalar abilene_cost_network.content_distribution 	repo-0 	11
scalar abilene_cost_network.content_distribution 	repo-1 	12
scalar abilene_cost_network.content_distribution 	repo-2 	13
scalar abilene_cost_network.content_distribution 	client-0 	5
scalar abilene_cost_network.content_distribution 	client-1 	0
scalar abilene_cost_network.content_distribution 	client-2 	9
scalar abilene_cost_network.content_distribution 	repo-0_card 	33396
scalar abilene_cost_network.content_distribution 	repo-1_card 	33039
scalar abilene_cost_network.content_distribution 	repo-2_card 	33565
scalar abilene_cost_network.statistics 	repo_popularity[0] 	0.28686251265602
scalar abilene_cost_network.statistics 	repo_popularity[1] 	0.2886063426465
scalar abilene_cost_network.statistics 	repo_popularity[2] 	0.42453114469748
scalar abilene_cost_network.statistics 	stabilization_time 	1204
scalar abilene_cost_network.node[1].face$o[4].channel 	price[1] 	0
scalar abilene_cost_network.node[1].face$o[4].channel 	represented_price[1] 	0
scalar abilene_cost_network.node[7].face$o[4].channel 	price[7] 	0
scalar abilene_cost_network.node[7].face$o[4].channel 	represented_price[7] 	0
scalar abilene_cost_network.node[10].face$o[4].channel 	price[10] 	0
scalar abilene_cost_network.node[10].face$o[4].channel 	represented_price[10] 	0
scalar abilene_cost_network.node[11].face$o[1].channel 	price[11] 	0
scalar abilene_cost_network.node[11].face$o[1].channel 	represented_price[11] 	0
scalar abilene_cost_network.node[12].face$o[1].channel 	price[12] 	1
scalar abilene_cost_network.node[12].face$o[1].channel 	represented_price[12] 	1
scalar abilene_cost_network.node[13].face$o[1].channel 	price[13] 	10
scalar abilene_cost_network.node[13].face$o[1].channel 	represented_price[13] 	10
scalar abilene_cost_network.statistics 	p_hit 	0.12433566007461
scalar abilene_cost_network.statistics 	interests 	126602.57142857
scalar abilene_cost_network.statistics 	data 	88119.5
scalar abilene_cost_network.statistics 	hdistance 	2.8812282128983
scalar abilene_cost_network.statistics 	avg_time 	0.011159912976
scalar abilene_cost_network.statistics 	downloads 	538217
scalar abilene_cost_network.statistics 	total_cost 	1188809
scalar abilene_cost_network.statistics 	total_replicas 	100000
scalar abilene_cost_network.statistics 	inner_hit 	0.40946309759818
scalar abilene_cost_network.statistics 	interests_sent 	538762
scalar abilene_cost_network.node[0].core_layer 	interests[0] 	184365
scalar abilene_cost_network.node[0].core_layer 	data[0] 	129374
scalar abilene_cost_network.node[0].core_layer 	repo_int[0] 	317837
scalar abilene_cost_network.node[0].content_store 	p_hit[0] 	0.29732324465056
scalar abilene_cost_network.node[0].content_store 	hits[0] 	54816
scalar abilene_cost_network.node[0].content_store 	misses[0] 	129549
scalar abilene_cost_network.node[0].content_store 	decision_yes[0] 	129373
scalar abilene_cost_network.node[0].content_store 	decision_no[0] 	0
scalar abilene_cost_network.node[0].content_store 	decision_ratio[0] 	1
scalar abilene_cost_network.node[1].core_layer 	interests[1] 	194238
scalar abilene_cost_network.node[1].core_layer 	data[1] 	190382
scalar abilene_cost_network.node[1].content_store 	p_hit[1] 	0.019857082548214
scalar abilene_cost_network.node[1].content_store 	hits[1] 	3857
scalar abilene_cost_network.node[1].content_store 	misses[1] 	190381
scalar abilene_cost_network.node[1].content_store 	decision_yes[1] 	190322
scalar abilene_cost_network.node[1].content_store 	decision_no[1] 	0
scalar abilene_cost_network.node[1].content_store 	decision_ratio[1] 	1
scalar abilene_cost_network.node[2].core_layer 	interests[2] 	121358
scalar abilene_cost_network.node[2].core_layer 	data[2] 	117840
scalar abilene_cost_network.node[2].content_store 	p_hit[2] 	0.028996852288271
scalar abilene_cost_network.node[2].content_store 	hits[2] 	3519
scalar abilene_cost_network.node[2].content_store 	misses[2] 	117839
scalar abilene_cost_network.node[2].content_store 	decision_yes[2] 	117778
scalar abilene_cost_network.node[2].content_store 	decision_no[2] 	0
scalar abilene_cost_network.node[2].content_store 	decision_ratio[2] 	1
scalar abilene_cost_network.node[3].core_layer 	interests[3] 	112719
scalar abilene_cost_network.node[3].core_layer 	data[3] 	111793
scalar abilene_cost_network.node[3].content_store 	p_hit[3] 	0.0082239906315705
scalar abilene_cost_network.node[3].content_store 	hits[3] 	927
scalar abilene_cost_network.node[3].content_store 	misses[3] 	111792
scalar abilene_cost_network.node[3].content_store 	decision_yes[3] 	111779
scalar abilene_cost_network.node[3].content_store 	decision_no[3] 	0
scalar abilene_cost_network.node[3].content_store 	decision_ratio[3] 	1
scalar abilene_cost_network.node[4].core_layer 	interests[4] 	79067
scalar abilene_cost_network.node[4].core_layer 	data[4] 	76021
scalar abilene_cost_network.node[4].content_store 	p_hit[4] 	0.038524289526604
scalar abilene_cost_network.node[4].content_store 	hits[4] 	3046
scalar abilene_cost_network.node[4].content_store 	misses[4] 	76021
scalar abilene_cost_network.node[4].content_store 	decision_yes[4] 	76021
scalar abilene_cost_network.node[4].content_store 	decision_no[4] 	0
scalar abilene_cost_network.node[4].content_store 	decision_ratio[4] 	1
scalar abilene_cost_network.node[5].core_layer 	interests[5] 	180093
scalar abilene_cost_network.node[5].core_layer 	data[5] 	128990
scalar abilene_cost_network.node[5].content_store 	p_hit[5] 	0.28264285674624
scalar abilene_cost_network.node[5].content_store 	hits[5] 	50902
scalar abilene_cost_network.node[5].content_store 	misses[5] 	129191
scalar abilene_cost_network.node[5].content_store 	decision_yes[5] 	128990
scalar abilene_cost_network.node[5].content_store 	decision_no[5] 	0
scalar abilene_cost_network.node[5].content_store 	decision_ratio[5] 	1
scalar abilene_cost_network.node[6].core_layer 	interests[6] 	54879
scalar abilene_cost_network.node[6].core_layer 	data[6] 	41991
scalar abilene_cost_network.node[6].content_store 	p_hit[6] 	0.23484392937189
scalar abilene_cost_network.node[6].content_store 	hits[6] 	12888
scalar abilene_cost_network.node[6].content_store 	misses[6] 	41991
scalar abilene_cost_network.node[6].content_store 	decision_yes[6] 	41991
scalar abilene_cost_network.node[6].content_store 	decision_no[6] 	0
scalar abilene_cost_network.node[6].content_store 	decision_ratio[6] 	1
scalar abilene_cost_network.node[7].core_layer 	interests[7] 	113947
scalar abilene_cost_network.node[7].core_layer 	data[7] 	110329
scalar abilene_cost_network.node[7].content_store 	p_hit[7] 	0.031707723766312
scalar abilene_cost_network.node[7].content_store 	hits[7] 	3613
scalar abilene_cost_network.node[7].content_store 	misses[7] 	110334
scalar abilene_cost_network.node[7].content_store 	decision_yes[7] 	110295
scalar abilene_cost_network.node[7].content_store 	decision_no[7] 	0
scalar abilene_cost_network.node[7].content_store 	decision_ratio[7] 	1
scalar abilene_cost_network.node[8].core_layer 	interests[8] 	61932
scalar abilene_cost_network.node[8].core_layer 	data[8] 	42439
scalar abilene_cost_network.node[8].content_store 	p_hit[8] 	0.3146999935413
scalar abilene_cost_network.node[8].content_store 	hits[8] 	19490
scalar abilene_cost_network.node[8].content_store 	misses[8] 	42442
scalar abilene_cost_network.node[8].content_store 	decision_yes[8] 	42436
scalar abilene_cost_network.node[8].content_store 	decision_no[8] 	0
scalar abilene_cost_network.node[8].content_store 	decision_ratio[8] 	1
scalar abilene_cost_network.node[9].core_layer 	interests[9] 	189522
scalar abilene_cost_network.node[9].core_layer 	data[9] 	127091
scalar abilene_cost_network.node[9].content_store 	p_hit[9] 	0.32852122708709
scalar abilene_cost_network.node[9].content_store 	hits[9] 	62262
scalar abilene_cost_network.node[9].content_store 	misses[9] 	127260
scalar abilene_cost_network.node[9].content_store 	decision_yes[9] 	127086
scalar abilene_cost_network.node[9].content_store 	decision_no[9] 	0
scalar abilene_cost_network.node[9].content_store 	decision_ratio[9] 	1
scalar abilene_cost_network.node[10].core_layer 	interests[10] 	162479
scalar abilene_cost_network.node[10].core_layer 	data[10] 	157423
scalar abilene_cost_network.node[10].content_store 	p_hit[10] 	0.031124022181328
scalar abilene_cost_network.node[10].content_store 	hits[10] 	5057
scalar abilene_cost_network.node[10].content_store 	misses[10] 	157422
scalar abilene_cost_network.node[10].content_store 	decision_yes[10] 	157393
scalar abilene_cost_network.node[10].content_store 	decision_no[10] 	0
scalar abilene_cost_network.node[10].content_store 	decision_ratio[10] 	1
scalar abilene_cost_network.node[11].core_layer 	interests[11] 	110073
scalar abilene_cost_network.node[11].core_layer 	repo_load[11] 	110073
scalar abilene_cost_network.node[11].core_layer 	data[11] 	0
scalar abilene_cost_network.node[11].content_store 	p_hit[11] 	0
scalar abilene_cost_network.node[11].content_store 	hits[11] 	0
scalar abilene_cost_network.node[11].content_store 	misses[11] 	110073
scalar abilene_cost_network.node[11].content_store 	decision_yes[11] 	0
scalar abilene_cost_network.node[11].content_store 	decision_no[11] 	110073
scalar abilene_cost_network.node[11].content_store 	decision_ratio[11] 	0
scalar abilene_cost_network.node[12].core_layer 	interests[12] 	98759
scalar abilene_cost_network.node[12].core_layer 	repo_load[12] 	98759
scalar abilene_cost_network.node[12].core_layer 	data[12] 	0
scalar abilene_cost_network.node[12].content_store 	p_hit[12] 	0
scalar abilene_cost_network.node[12].content_store 	hits[12] 	0
scalar abilene_cost_network.node[12].content_store 	misses[12] 	98759
scalar abilene_cost_network.node[12].content_store 	decision_yes[12] 	0
scalar abilene_cost_network.node[12].content_store 	decision_no[12] 	98759
scalar abilene_cost_network.node[12].content_store 	decision_ratio[12] 	0
scalar abilene_cost_network.node[13].core_layer 	interests[13] 	109005
scalar abilene_cost_network.node[13].core_layer 	repo_load[13] 	109005
scalar abilene_cost_network.node[13].core_layer 	data[13] 	0
scalar abilene_cost_network.node[13].content_store 	p_hit[13] 	0
scalar abilene_cost_network.node[13].content_store 	hits[13] 	0
scalar abilene_cost_network.node[13].content_store 	misses[13] 	109005
scalar abilene_cost_network.node[13].content_store 	decision_yes[13] 	0
scalar abilene_cost_network.node[13].content_store 	decision_no[13] 	109005
scalar abilene_cost_network.node[13].content_store 	decision_ratio[13] 	0
scalar abilene_cost_network.client[0] 	hdistance[0] 	2.6399769137707
scalar abilene_cost_network.client[0] 	downloads[0] 	180194
scalar abilene_cost_network.client[0] 	avg_time[0] 	0.010748493471
scalar abilene_cost_network.client[0] 	interests_sent[0] 	180369
scalar abilene_cost_network.client[5] 	hdistance[5] 	3.6507985138229
scalar abilene_cost_network.client[5] 	downloads[5] 	179521
scalar abilene_cost_network.client[5] 	avg_time[5] 	0.013295560649
scalar abilene_cost_network.client[5] 	interests_sent[5] 	179722
scalar abilene_cost_network.client[9] 	hdistance[9] 	2.3529092111012
scalar abilene_cost_network.client[9] 	downloads[9] 	178502
scalar abilene_cost_network.client[9] 	avg_time[9] 	0.009435684808
scalar abilene_cost_network.client[9] 	interests_sent[9] 	178671
