version 2
run General-22-20150311-18:59:43-28977
attr D prob_cache
attr F spr
attr R lru
attr a 1
attr configname General
attr datetime 20150311-18:59:43
attr experiment General
attr inifile omnetpp.ini
attr iterationvars "$net=abilene, $rep=0, $a=1, $F=spr, $ttl=1000, $D=prob_cache, $R=lru"
attr iterationvars2 "$net=abilene, $rep=0, $a=1, $F=spr, $ttl=1000, $D=prob_cache, $R=lru, $repetition=0"
attr measurement "$net=abilene, $rep=0, $a=1, $F=spr, $ttl=1000, $D=prob_cache, $R=lru"
attr net abilene
attr network networks.${net=abilene}_network
attr processid 28977
attr rep 0
attr repetition 0
attr replication #0
attr resultdir results
attr runnumber 22
attr seedset 0
attr ttl 1000

scalar . 	a 	1
scalar . 	rep 	0
scalar . 	ttl 	1000
scalar abilene_network.content_distribution 	repo-0 	5
scalar abilene_network.content_distribution 	client-0 	8
scalar abilene_network.content_distribution 	client-1 	9
scalar abilene_network.content_distribution 	client-2 	5
scalar abilene_network.content_distribution 	client-3 	0
scalar abilene_network.content_distribution 	client-4 	1
scalar abilene_network.content_distribution 	client-5 	7
scalar abilene_network.content_distribution 	client-6 	6
scalar abilene_network.content_distribution 	client-7 	2
scalar abilene_network.content_distribution 	client-8 	4
scalar abilene_network.content_distribution 	client-9 	10
scalar abilene_network.content_distribution 	client-10 	3
scalar abilene_network.content_distribution 	repo-0_card 	10000
scalar abilene_network.content_distribution 	repo-0_price 	0
scalar abilene_network.statistics 	stabilization_time 	1185.7
scalar abilene_network.statistics 	p_hit 	0.20898380583656
scalar abilene_network.statistics 	interests 	4367.4545454545
scalar abilene_network.statistics 	data 	2568.4545454545
scalar abilene_network.statistics 	hdistance 	1.9136158037394
scalar abilene_network.statistics 	avg_time 	0.008037878137
scalar abilene_network.statistics 	downloads 	19788
scalar abilene_network.statistics 	total_cost 	0
scalar abilene_network.statistics 	total_replicas 	10000
scalar abilene_network.statistics 	inner_hit 	0.50737820901556
scalar abilene_network.node[0].core_layer 	interests[0] 	1829
scalar abilene_network.node[0].core_layer 	data[0] 	993
scalar abilene_network.node[0].core_layer 	repo_int[0] 	9748
scalar abilene_network.node[0].content_store 	p_hit[0] 	0.45653362493166
scalar abilene_network.node[0].content_store 	hits[0] 	835
scalar abilene_network.node[0].content_store 	misses[0] 	994
scalar abilene_network.node[0].content_store 	decision_yes[0] 	132
scalar abilene_network.node[0].content_store 	decision_no[0] 	861
scalar abilene_network.node[0].content_store 	decision_ratio[0] 	0.13293051359517
scalar abilene_network.node[1].core_layer 	interests[1] 	3829
scalar abilene_network.node[1].core_layer 	data[1] 	2900
scalar abilene_network.node[1].content_store 	p_hit[1] 	0.24262209454166
scalar abilene_network.node[1].content_store 	hits[1] 	929
scalar abilene_network.node[1].content_store 	misses[1] 	2900
scalar abilene_network.node[1].content_store 	decision_yes[1] 	445
scalar abilene_network.node[1].content_store 	decision_no[1] 	2455
scalar abilene_network.node[1].content_store 	decision_ratio[1] 	0.15344827586207
scalar abilene_network.node[2].core_layer 	interests[2] 	4687
scalar abilene_network.node[2].core_layer 	data[2] 	3792
scalar abilene_network.node[2].content_store 	p_hit[2] 	0.19095370172818
scalar abilene_network.node[2].content_store 	hits[2] 	895
scalar abilene_network.node[2].content_store 	misses[2] 	3792
scalar abilene_network.node[2].content_store 	decision_yes[2] 	637
scalar abilene_network.node[2].content_store 	decision_no[2] 	3155
scalar abilene_network.node[2].content_store 	decision_ratio[2] 	0.16798523206751
scalar abilene_network.node[3].core_layer 	interests[3] 	5612
scalar abilene_network.node[3].core_layer 	data[3] 	4662
scalar abilene_network.node[3].content_store 	p_hit[3] 	0.16928011404134
scalar abilene_network.node[3].content_store 	hits[3] 	950
scalar abilene_network.node[3].content_store 	misses[3] 	4662
scalar abilene_network.node[3].content_store 	decision_yes[3] 	775
scalar abilene_network.node[3].content_store 	decision_no[3] 	3887
scalar abilene_network.node[3].content_store 	decision_ratio[3] 	0.16623766623767
scalar abilene_network.node[4].core_layer 	interests[4] 	6429
scalar abilene_network.node[4].core_layer 	data[4] 	5457
scalar abilene_network.node[4].content_store 	p_hit[4] 	0.15118992067196
scalar abilene_network.node[4].content_store 	hits[4] 	972
scalar abilene_network.node[4].content_store 	misses[4] 	5457
scalar abilene_network.node[4].content_store 	decision_yes[4] 	791
scalar abilene_network.node[4].content_store 	decision_no[4] 	4666
scalar abilene_network.node[4].content_store 	decision_ratio[4] 	0.14495143851933
scalar abilene_network.node[5].core_layer 	interests[5] 	10985
scalar abilene_network.node[5].core_layer 	repo_load[5] 	9748
scalar abilene_network.node[5].core_layer 	data[5] 	0
scalar abilene_network.node[5].content_store 	p_hit[5] 	0.11260810195721
scalar abilene_network.node[5].content_store 	hits[5] 	1237
scalar abilene_network.node[5].content_store 	misses[5] 	9748
scalar abilene_network.node[5].content_store 	decision_yes[5] 	968
scalar abilene_network.node[5].content_store 	decision_no[5] 	8780
scalar abilene_network.node[5].content_store 	decision_ratio[5] 	0.099302421009438
scalar abilene_network.node[6].core_layer 	interests[6] 	4570
scalar abilene_network.node[6].core_layer 	data[6] 	3733
scalar abilene_network.node[6].content_store 	p_hit[6] 	0.18315098468271
scalar abilene_network.node[6].content_store 	hits[6] 	837
scalar abilene_network.node[6].content_store 	misses[6] 	3733
scalar abilene_network.node[6].content_store 	decision_yes[6] 	554
scalar abilene_network.node[6].content_store 	decision_no[6] 	3179
scalar abilene_network.node[6].content_store 	decision_ratio[6] 	0.14840610768819
scalar abilene_network.node[7].core_layer 	interests[7] 	3675
scalar abilene_network.node[7].core_layer 	data[7] 	2807
scalar abilene_network.node[7].content_store 	p_hit[7] 	0.23619047619048
scalar abilene_network.node[7].content_store 	hits[7] 	868
scalar abilene_network.node[7].content_store 	misses[7] 	2807
scalar abilene_network.node[7].content_store 	decision_yes[7] 	422
scalar abilene_network.node[7].content_store 	decision_no[7] 	2385
scalar abilene_network.node[7].content_store 	decision_ratio[7] 	0.15033843961525
scalar abilene_network.node[8].core_layer 	interests[8] 	2730
scalar abilene_network.node[8].core_layer 	data[8] 	1881
scalar abilene_network.node[8].content_store 	p_hit[8] 	0.31098901098901
scalar abilene_network.node[8].content_store 	hits[8] 	849
scalar abilene_network.node[8].content_store 	misses[8] 	1881
scalar abilene_network.node[8].content_store 	decision_yes[8] 	246
scalar abilene_network.node[8].content_store 	decision_no[8] 	1635
scalar abilene_network.node[8].content_store 	decision_ratio[8] 	0.13078149920255
scalar abilene_network.node[9].core_layer 	interests[9] 	1883
scalar abilene_network.node[9].core_layer 	data[9] 	1006
scalar abilene_network.node[9].content_store 	p_hit[9] 	0.46574614976102
scalar abilene_network.node[9].content_store 	hits[9] 	877
scalar abilene_network.node[9].content_store 	misses[9] 	1006
scalar abilene_network.node[9].content_store 	decision_yes[9] 	122
scalar abilene_network.node[9].content_store 	decision_no[9] 	884
scalar abilene_network.node[9].content_store 	decision_ratio[9] 	0.12127236580517
scalar abilene_network.node[10].core_layer 	interests[10] 	1813
scalar abilene_network.node[10].core_layer 	data[10] 	1022
scalar abilene_network.node[10].content_store 	p_hit[10] 	0.43629343629344
scalar abilene_network.node[10].content_store 	hits[10] 	791
scalar abilene_network.node[10].content_store 	misses[10] 	1022
scalar abilene_network.node[10].content_store 	decision_yes[10] 	137
scalar abilene_network.node[10].content_store 	decision_no[10] 	885
scalar abilene_network.node[10].content_store 	decision_ratio[10] 	0.13405088062622
scalar abilene_network.client[0] 	hdistance[0] 	2.835886214442
scalar abilene_network.client[0] 	downloads[0] 	1828
scalar abilene_network.client[0] 	avg_time[0] 	0.01539310676
scalar abilene_network.client[1] 	hdistance[1] 	2.5104740904079
scalar abilene_network.client[1] 	downloads[1] 	1814
scalar abilene_network.client[1] 	avg_time[1] 	0.01045926084
scalar abilene_network.client[2] 	hdistance[2] 	2.1091214325685
scalar abilene_network.client[2] 	downloads[2] 	1787
scalar abilene_network.client[2] 	avg_time[2] 	0.007704509908
scalar abilene_network.client[3] 	hdistance[3] 	1.6807692307692
scalar abilene_network.client[3] 	downloads[3] 	1820
scalar abilene_network.client[3] 	avg_time[3] 	0.005312790748
scalar abilene_network.client[4] 	hdistance[4] 	1.2026032823995
scalar abilene_network.client[4] 	downloads[4] 	1767
scalar abilene_network.client[4] 	avg_time[4] 	0.004877147262
scalar abilene_network.client[5] 	hdistance[5] 	0.65348189415042
scalar abilene_network.client[5] 	downloads[5] 	1795
scalar abilene_network.client[5] 	avg_time[5] 	0
scalar abilene_network.client[6] 	hdistance[6] 	1.1900170164492
scalar abilene_network.client[6] 	downloads[6] 	1763
scalar abilene_network.client[6] 	avg_time[6] 	0.001390130022
scalar abilene_network.client[7] 	hdistance[7] 	1.6376811594203
scalar abilene_network.client[7] 	downloads[7] 	1794
scalar abilene_network.client[7] 	avg_time[7] 	0.004629107682
scalar abilene_network.client[8] 	hdistance[8] 	1.9524361948956
scalar abilene_network.client[8] 	downloads[8] 	1724
scalar abilene_network.client[8] 	avg_time[8] 	0.008061124858
scalar abilene_network.client[9] 	hdistance[9] 	2.3892724375996
scalar abilene_network.client[9] 	downloads[9] 	1883
scalar abilene_network.client[9] 	avg_time[9] 	0.015341263478
scalar abilene_network.client[10] 	hdistance[10] 	2.8880308880309
scalar abilene_network.client[10] 	downloads[10] 	1813
scalar abilene_network.client[10] 	avg_time[10] 	0.015248217957
