version 2
run General-11-20141007-11:46:53-22084
attr D costaware0.1
attr F nrr
attr R lru
attr a 1
attr configname General
attr csize 1e3
attr ctlg 1e5
attr datetime 20141007-11:46:53
attr experiment General
attr inifile omnetpp.ini
attr iterationvars "$net=abilene_cost, $rep=3, $priceratiovalue=10, $weights=0.333_0.333_0.334, $lambda=100, $a=1, $ctlg=1e5, $F=nrr, $ttl=10, $D=costaware0.1, $xi=1, $R=lru, $csize=1e3, $pricebits=0, $window=60, $variance=0.05, $mytime=1800"
attr iterationvars2 "$net=abilene_cost, $rep=3, $priceratiovalue=10, $weights=0.333_0.333_0.334, $lambda=100, $a=1, $ctlg=1e5, $F=nrr, $ttl=10, $D=costaware0.1, $xi=1, $R=lru, $csize=1e3, $pricebits=0, $window=60, $variance=0.05, $mytime=1800, $repetition=0"
attr lambda 100
attr measurement "$net=abilene_cost, $rep=3, $priceratiovalue=10, $weights=0.333_0.333_0.334, $lambda=100, $a=1, $ctlg=1e5, $F=nrr, $ttl=10, $D=costaware0.1, $xi=1, $R=lru, $csize=1e3, $pricebits=0, $window=60, $variance=0.05, $mytime=1800"
attr mytime 1800
attr net abilene_cost
attr network networks.${net=abilene_cost,geant_cost}_network
attr pricebits 0
attr priceratiovalue 10
attr processid 22084
attr rep 3
attr repetition 0
attr replication #0
attr resultdir results
attr runnumber 11
attr seedset 3
attr ttl 10
attr variance 0.05
attr weights 0.333_0.333_0.334
attr window 60
attr xi 1

scalar . 	a 	1
scalar . 	csize 	1e3
scalar . 	ctlg 	1e5
scalar . 	lambda 	100
scalar . 	mytime 	1800
scalar . 	pricebits 	0
scalar . 	priceratiovalue 	10
scalar . 	rep 	3
scalar . 	ttl 	10
scalar . 	variance 	0.05
scalar . 	window 	60
scalar . 	xi 	1
scalar abilene_cost_network.content_distribution 	repo-0 	9
scalar abilene_cost_network.content_distribution 	repo-1 	4
scalar abilene_cost_network.content_distribution 	repo-2 	0
scalar abilene_cost_network.content_distribution 	client-0 	9
scalar abilene_cost_network.content_distribution 	client-1 	0
scalar abilene_cost_network.content_distribution 	client-2 	1
scalar abilene_cost_network.content_distribution 	repo-0_card 	33498
scalar abilene_cost_network.content_distribution 	repo-0_price 	0
scalar abilene_cost_network.content_distribution 	repo-1_card 	33168
scalar abilene_cost_network.content_distribution 	repo-1_price 	10
scalar abilene_cost_network.content_distribution 	repo-2_card 	33334
scalar abilene_cost_network.content_distribution 	repo-2_price 	1
scalar abilene_cost_network.statistics 	repo_popularity[0] 	0.34820484875244
scalar abilene_cost_network.statistics 	repo_popularity[1] 	0.25519349814637
scalar abilene_cost_network.statistics 	repo_popularity[2] 	0.3966016531012
scalar abilene_cost_network.statistics 	stabilization_time 	36060
scalar abilene_cost_network.statistics 	p_hit 	0.127715293106
scalar abilene_cost_network.statistics 	interests 	123270.63636364
scalar abilene_cost_network.statistics 	data 	74271.636363636
scalar abilene_cost_network.statistics 	hdistance 	2.2027802271345
scalar abilene_cost_network.statistics 	avg_time 	0.009764848606
scalar abilene_cost_network.statistics 	downloads 	535802
scalar abilene_cost_network.statistics 	total_cost 	915132
scalar abilene_cost_network.statistics 	total_replicas 	100000
scalar abilene_cost_network.statistics 	inner_hit 	0.32376698855174
scalar abilene_cost_network.node[0].core_layer 	interests[0] 	274677
scalar abilene_cost_network.node[0].core_layer 	repo_load[0] 	94402
scalar abilene_cost_network.node[0].core_layer 	data[0] 	105519
scalar abilene_cost_network.node[0].core_layer 	repo_int[0] 	362327
scalar abilene_cost_network.node[0].content_store 	p_hit[0] 	0.27054321985459
scalar abilene_cost_network.node[0].content_store 	hits[0] 	74312
scalar abilene_cost_network.node[0].content_store 	misses[0] 	200365
scalar abilene_cost_network.node[0].content_store 	decision_yes[0] 	10085
scalar abilene_cost_network.node[0].content_store 	decision_no[0] 	189836
scalar abilene_cost_network.node[0].content_store 	decision_ratio[0] 	0.05044492574567
scalar abilene_cost_network.node[0].content_store 	correction_factor[0] 	0.027225701061802
scalar abilene_cost_network.node[0].content_store 	kappa[0] 	1
scalar abilene_cost_network.node[1].core_layer 	interests[1] 	220533
scalar abilene_cost_network.node[1].core_layer 	data[1] 	211991
scalar abilene_cost_network.node[1].content_store 	p_hit[1] 	0.028880031559903
scalar abilene_cost_network.node[1].content_store 	hits[1] 	6369
scalar abilene_cost_network.node[1].content_store 	misses[1] 	214164
scalar abilene_cost_network.node[1].content_store 	decision_yes[1] 	15792
scalar abilene_cost_network.node[1].content_store 	decision_no[1] 	196199
scalar abilene_cost_network.node[1].content_store 	decision_ratio[1] 	0.074493728507342
scalar abilene_cost_network.node[1].content_store 	correction_factor[1] 	0.027225701061802
scalar abilene_cost_network.node[1].content_store 	kappa[1] 	1
scalar abilene_cost_network.node[2].core_layer 	interests[2] 	104240
scalar abilene_cost_network.node[2].core_layer 	data[2] 	97780
scalar abilene_cost_network.node[2].content_store 	p_hit[2] 	0.061933998465081
scalar abilene_cost_network.node[2].content_store 	hits[2] 	6456
scalar abilene_cost_network.node[2].content_store 	misses[2] 	97784
scalar abilene_cost_network.node[2].content_store 	decision_yes[2] 	22376
scalar abilene_cost_network.node[2].content_store 	decision_no[2] 	75404
scalar abilene_cost_network.node[2].content_store 	decision_ratio[2] 	0.2288402536306
scalar abilene_cost_network.node[2].content_store 	correction_factor[2] 	0.027225701061802
scalar abilene_cost_network.node[2].content_store 	kappa[2] 	1
scalar abilene_cost_network.node[3].core_layer 	interests[3] 	86006
scalar abilene_cost_network.node[3].core_layer 	data[3] 	83689
scalar abilene_cost_network.node[3].content_store 	p_hit[3] 	0.026951608027347
scalar abilene_cost_network.node[3].content_store 	hits[3] 	2318
scalar abilene_cost_network.node[3].content_store 	misses[3] 	83688
scalar abilene_cost_network.node[3].content_store 	decision_yes[3] 	22343
scalar abilene_cost_network.node[3].content_store 	decision_no[3] 	61346
scalar abilene_cost_network.node[3].content_store 	decision_ratio[3] 	0.26697654410974
scalar abilene_cost_network.node[3].content_store 	correction_factor[3] 	0.027225701061802
scalar abilene_cost_network.node[3].content_store 	kappa[3] 	1
scalar abilene_cost_network.node[4].core_layer 	interests[4] 	83689
scalar abilene_cost_network.node[4].core_layer 	repo_load[4] 	82073
scalar abilene_cost_network.node[4].core_layer 	data[4] 	0
scalar abilene_cost_network.node[4].content_store 	p_hit[4] 	0.019309586684033
scalar abilene_cost_network.node[4].content_store 	hits[4] 	1616
scalar abilene_cost_network.node[4].content_store 	misses[4] 	82073
scalar abilene_cost_network.node[4].content_store 	decision_yes[4] 	22136
scalar abilene_cost_network.node[4].content_store 	decision_no[4] 	59937
scalar abilene_cost_network.node[4].content_store 	decision_ratio[4] 	0.26971111084035
scalar abilene_cost_network.node[4].content_store 	correction_factor[4] 	0.027225701061802
scalar abilene_cost_network.node[4].content_store 	kappa[4] 	1
scalar abilene_cost_network.node[5].core_layer 	interests[5] 	0
scalar abilene_cost_network.node[5].core_layer 	data[5] 	0
scalar abilene_cost_network.node[5].content_store 	p_hit[5] 	-nan
scalar abilene_cost_network.node[5].content_store 	hits[5] 	0
scalar abilene_cost_network.node[5].content_store 	misses[5] 	0
scalar abilene_cost_network.node[5].content_store 	decision_yes[5] 	0
scalar abilene_cost_network.node[5].content_store 	decision_no[5] 	0
scalar abilene_cost_network.node[5].content_store 	decision_ratio[5] 	0
scalar abilene_cost_network.node[5].content_store 	correction_factor[5] 	0.027225701061802
scalar abilene_cost_network.node[5].content_store 	kappa[5] 	1
scalar abilene_cost_network.node[6].core_layer 	interests[6] 	0
scalar abilene_cost_network.node[6].core_layer 	data[6] 	0
scalar abilene_cost_network.node[6].content_store 	p_hit[6] 	-nan
scalar abilene_cost_network.node[6].content_store 	hits[6] 	0
scalar abilene_cost_network.node[6].content_store 	misses[6] 	0
scalar abilene_cost_network.node[6].content_store 	decision_yes[6] 	0
scalar abilene_cost_network.node[6].content_store 	decision_no[6] 	0
scalar abilene_cost_network.node[6].content_store 	decision_ratio[6] 	0
scalar abilene_cost_network.node[6].content_store 	correction_factor[6] 	0.027225701061802
scalar abilene_cost_network.node[6].content_store 	kappa[6] 	1
scalar abilene_cost_network.node[7].core_layer 	interests[7] 	0
scalar abilene_cost_network.node[7].core_layer 	data[7] 	0
scalar abilene_cost_network.node[7].content_store 	p_hit[7] 	-nan
scalar abilene_cost_network.node[7].content_store 	hits[7] 	0
scalar abilene_cost_network.node[7].content_store 	misses[7] 	0
scalar abilene_cost_network.node[7].content_store 	decision_yes[7] 	0
scalar abilene_cost_network.node[7].content_store 	decision_no[7] 	0
scalar abilene_cost_network.node[7].content_store 	decision_ratio[7] 	0
scalar abilene_cost_network.node[7].content_store 	correction_factor[7] 	0.027225701061802
scalar abilene_cost_network.node[7].content_store 	kappa[7] 	1
scalar abilene_cost_network.node[8].core_layer 	interests[8] 	48535
scalar abilene_cost_network.node[8].core_layer 	data[8] 	30739
scalar abilene_cost_network.node[8].content_store 	p_hit[8] 	0.36668383640672
scalar abilene_cost_network.node[8].content_store 	hits[8] 	17797
scalar abilene_cost_network.node[8].content_store 	misses[8] 	30738
scalar abilene_cost_network.node[8].content_store 	decision_yes[8] 	7566
scalar abilene_cost_network.node[8].content_store 	decision_no[8] 	23173
scalar abilene_cost_network.node[8].content_store 	decision_ratio[8] 	0.24613682943492
scalar abilene_cost_network.node[8].content_store 	correction_factor[8] 	0.027225701061802
scalar abilene_cost_network.node[8].content_store 	kappa[8] 	1
scalar abilene_cost_network.node[9].core_layer 	interests[9] 	313065
scalar abilene_cost_network.node[9].core_layer 	repo_load[9] 	185852
scalar abilene_cost_network.node[9].core_layer 	data[9] 	110585
scalar abilene_cost_network.node[9].content_store 	p_hit[9] 	0.051161899286091
scalar abilene_cost_network.node[9].content_store 	hits[9] 	16017
scalar abilene_cost_network.node[9].content_store 	misses[9] 	297048
scalar abilene_cost_network.node[9].content_store 	decision_yes[9] 	8293
scalar abilene_cost_network.node[9].content_store 	decision_no[9] 	288144
scalar abilene_cost_network.node[9].content_store 	decision_ratio[9] 	0.027975590091655
scalar abilene_cost_network.node[9].content_store 	correction_factor[9] 	0.027225701061802
scalar abilene_cost_network.node[9].content_store 	kappa[9] 	1
scalar abilene_cost_network.node[10].core_layer 	interests[10] 	225232
scalar abilene_cost_network.node[10].core_layer 	data[10] 	176685
scalar abilene_cost_network.node[10].content_store 	p_hit[10] 	0.21441891027918
scalar abilene_cost_network.node[10].content_store 	hits[10] 	48294
scalar abilene_cost_network.node[10].content_store 	misses[10] 	176938
scalar abilene_cost_network.node[10].content_store 	decision_yes[10] 	825
scalar abilene_cost_network.node[10].content_store 	decision_no[10] 	175860
scalar abilene_cost_network.node[10].content_store 	decision_ratio[10] 	0.0046693267679769
scalar abilene_cost_network.node[10].content_store 	correction_factor[10] 	0.027225701061802
scalar abilene_cost_network.node[10].content_store 	kappa[10] 	1
scalar abilene_cost_network.client[0] 	hdistance[0] 	2.2174869074795
scalar abilene_cost_network.client[0] 	downloads[0] 	178728
scalar abilene_cost_network.client[0] 	avg_time[0] 	0.008974740187
scalar abilene_cost_network.client[1] 	hdistance[1] 	2.3820067801192
scalar abilene_cost_network.client[1] 	downloads[1] 	177578
scalar abilene_cost_network.client[1] 	avg_time[1] 	0.011823372995
scalar abilene_cost_network.client[9] 	hdistance[9] 	2.0088469938049
scalar abilene_cost_network.client[9] 	downloads[9] 	179496
scalar abilene_cost_network.client[9] 	avg_time[9] 	0.008496432637
