version 2
run General-11-20141007-10:52:54-8400
attr D costaware0.1
attr F nrr
attr R lru
attr a 1
attr configname General
attr csize 1e3
attr ctlg 1e5
attr datetime 20141007-10:52:54
attr experiment General
attr inifile omnetpp.ini
attr iterationvars "$net=abilene_cost, $rep=1, $priceratiovalue=10, $weights=0.333_0.333_0.334, $lambda=100, $a=1, $ctlg=1e5, $F=nrr, $ttl=10, $D=costaware0.1, $xi=1, $R=lru, $csize=1e3, $pricebits=0, $window=60, $variance=0.05, $mytime=1800"
attr iterationvars2 "$net=abilene_cost, $rep=1, $priceratiovalue=10, $weights=0.333_0.333_0.334, $lambda=100, $a=1, $ctlg=1e5, $F=nrr, $ttl=10, $D=costaware0.1, $xi=1, $R=lru, $csize=1e3, $pricebits=0, $window=60, $variance=0.05, $mytime=1800, $repetition=0"
attr lambda 100
attr measurement "$net=abilene_cost, $rep=1, $priceratiovalue=10, $weights=0.333_0.333_0.334, $lambda=100, $a=1, $ctlg=1e5, $F=nrr, $ttl=10, $D=costaware0.1, $xi=1, $R=lru, $csize=1e3, $pricebits=0, $window=60, $variance=0.05, $mytime=1800"
attr mytime 1800
attr net abilene_cost
attr network networks.${net=abilene_cost,geant_cost}_network
attr pricebits 0
attr priceratiovalue 10
attr processid 8400
attr rep 1
attr repetition 0
attr replication #0
attr resultdir results
attr runnumber 11
attr seedset 1
attr ttl 10
attr variance 0.05
attr weights 0.333_0.333_0.334
attr window 60
attr xi 1

scalar . 	a 	1
scalar . 	csize 	1e3
scalar . 	ctlg 	1e5
scalar . 	lambda 	100
scalar . 	mytime 	1800
scalar . 	pricebits 	0
scalar . 	priceratiovalue 	10
scalar . 	rep 	1
scalar . 	ttl 	10
scalar . 	variance 	0.05
scalar . 	window 	60
scalar . 	xi 	1
scalar abilene_cost_network.content_distribution 	repo-0 	10
scalar abilene_cost_network.content_distribution 	repo-1 	7
scalar abilene_cost_network.content_distribution 	repo-2 	5
scalar abilene_cost_network.content_distribution 	client-0 	8
scalar abilene_cost_network.content_distribution 	client-1 	7
scalar abilene_cost_network.content_distribution 	client-2 	2
scalar abilene_cost_network.content_distribution 	repo-0_card 	33397
scalar abilene_cost_network.content_distribution 	repo-0_price 	0
scalar abilene_cost_network.content_distribution 	repo-1_card 	33041
scalar abilene_cost_network.content_distribution 	repo-1_price 	10
scalar abilene_cost_network.content_distribution 	repo-2_card 	33562
scalar abilene_cost_network.content_distribution 	repo-2_price 	1
scalar abilene_cost_network.statistics 	repo_popularity[0] 	0.36106327575467
scalar abilene_cost_network.statistics 	repo_popularity[1] 	0.3490006524958
scalar abilene_cost_network.statistics 	repo_popularity[2] 	0.28993607174955
scalar abilene_cost_network.statistics 	stabilization_time 	36060
scalar abilene_cost_network.statistics 	p_hit 	0.10895614413975
scalar abilene_cost_network.statistics 	interests 	137858.63636364
scalar abilene_cost_network.statistics 	data 	88781.636363636
scalar abilene_cost_network.statistics 	hdistance 	2.5250851259257
scalar abilene_cost_network.statistics 	avg_time 	0.012096373148
scalar abilene_cost_network.statistics 	downloads 	534373
scalar abilene_cost_network.statistics 	total_cost 	1043593
scalar abilene_cost_network.statistics 	total_replicas 	100000
scalar abilene_cost_network.statistics 	inner_hit 	0.31285263289874
scalar abilene_cost_network.node[0].core_layer 	interests[0] 	0
scalar abilene_cost_network.node[0].core_layer 	data[0] 	0
scalar abilene_cost_network.node[0].core_layer 	repo_int[0] 	367193
scalar abilene_cost_network.node[0].content_store 	p_hit[0] 	-nan
scalar abilene_cost_network.node[0].content_store 	hits[0] 	0
scalar abilene_cost_network.node[0].content_store 	misses[0] 	0
scalar abilene_cost_network.node[0].content_store 	decision_yes[0] 	0
scalar abilene_cost_network.node[0].content_store 	decision_no[0] 	0
scalar abilene_cost_network.node[0].content_store 	decision_ratio[0] 	0
scalar abilene_cost_network.node[0].content_store 	correction_factor[0] 	0.027225701061802
scalar abilene_cost_network.node[0].content_store 	kappa[0] 	1
scalar abilene_cost_network.node[1].core_layer 	interests[1] 	64393
scalar abilene_cost_network.node[1].core_layer 	data[1] 	64393
scalar abilene_cost_network.node[1].content_store 	p_hit[1] 	0
scalar abilene_cost_network.node[1].content_store 	hits[1] 	0
scalar abilene_cost_network.node[1].content_store 	misses[1] 	64393
scalar abilene_cost_network.node[1].content_store 	decision_yes[1] 	0
scalar abilene_cost_network.node[1].content_store 	decision_no[1] 	64393
scalar abilene_cost_network.node[1].content_store 	decision_ratio[1] 	0
scalar abilene_cost_network.node[1].content_store 	correction_factor[1] 	0.027225701061802
scalar abilene_cost_network.node[1].content_store 	kappa[1] 	1
scalar abilene_cost_network.node[2].core_layer 	interests[2] 	201060
scalar abilene_cost_network.node[2].core_layer 	data[2] 	179616
scalar abilene_cost_network.node[2].content_store 	p_hit[2] 	0.096289664776684
scalar abilene_cost_network.node[2].content_store 	hits[2] 	19360
scalar abilene_cost_network.node[2].content_store 	misses[2] 	181700
scalar abilene_cost_network.node[2].content_store 	decision_yes[2] 	8505
scalar abilene_cost_network.node[2].content_store 	decision_no[2] 	171111
scalar abilene_cost_network.node[2].content_store 	decision_ratio[2] 	0.047351015499733
scalar abilene_cost_network.node[2].content_store 	correction_factor[2] 	0.027225701061802
scalar abilene_cost_network.node[2].content_store 	kappa[2] 	1
scalar abilene_cost_network.node[3].core_layer 	interests[3] 	115335
scalar abilene_cost_network.node[3].core_layer 	data[3] 	109147
scalar abilene_cost_network.node[3].content_store 	p_hit[3] 	0.053583040707504
scalar abilene_cost_network.node[3].content_store 	hits[3] 	6180
scalar abilene_cost_network.node[3].content_store 	misses[3] 	109155
scalar abilene_cost_network.node[3].content_store 	decision_yes[3] 	8690
scalar abilene_cost_network.node[3].content_store 	decision_no[3] 	100457
scalar abilene_cost_network.node[3].content_store 	decision_ratio[3] 	0.079617396721852
scalar abilene_cost_network.node[3].content_store 	correction_factor[3] 	0.027225701061802
scalar abilene_cost_network.node[3].content_store 	kappa[3] 	1
scalar abilene_cost_network.node[4].core_layer 	interests[4] 	55722
scalar abilene_cost_network.node[4].core_layer 	data[4] 	35846
scalar abilene_cost_network.node[4].content_store 	p_hit[4] 	0.35669932881088
scalar abilene_cost_network.node[4].content_store 	hits[4] 	19876
scalar abilene_cost_network.node[4].content_store 	misses[4] 	35846
scalar abilene_cost_network.node[4].content_store 	decision_yes[4] 	770
scalar abilene_cost_network.node[4].content_store 	decision_no[4] 	35076
scalar abilene_cost_network.node[4].content_store 	decision_ratio[4] 	0.021480778887463
scalar abilene_cost_network.node[4].content_store 	correction_factor[4] 	0.027225701061802
scalar abilene_cost_network.node[4].content_store 	kappa[4] 	1
scalar abilene_cost_network.node[5].core_layer 	interests[5] 	106772
scalar abilene_cost_network.node[5].core_layer 	repo_load[5] 	80803
scalar abilene_cost_network.node[5].core_layer 	data[5] 	0
scalar abilene_cost_network.node[5].content_store 	p_hit[5] 	0.24321919604391
scalar abilene_cost_network.node[5].content_store 	hits[5] 	25969
scalar abilene_cost_network.node[5].content_store 	misses[5] 	80803
scalar abilene_cost_network.node[5].content_store 	decision_yes[5] 	2207
scalar abilene_cost_network.node[5].content_store 	decision_no[5] 	78596
scalar abilene_cost_network.node[5].content_store 	decision_ratio[5] 	0.027313342326399
scalar abilene_cost_network.node[5].content_store 	correction_factor[5] 	0.027225701061802
scalar abilene_cost_network.node[5].content_store 	kappa[5] 	1
scalar abilene_cost_network.node[6].core_layer 	interests[6] 	87298
scalar abilene_cost_network.node[6].core_layer 	data[6] 	70926
scalar abilene_cost_network.node[6].content_store 	p_hit[6] 	0.18754152443355
scalar abilene_cost_network.node[6].content_store 	hits[6] 	16372
scalar abilene_cost_network.node[6].content_store 	misses[6] 	70926
scalar abilene_cost_network.node[6].content_store 	decision_yes[6] 	1475
scalar abilene_cost_network.node[6].content_store 	decision_no[6] 	69451
scalar abilene_cost_network.node[6].content_store 	decision_ratio[6] 	0.020796322928122
scalar abilene_cost_network.node[6].content_store 	correction_factor[6] 	0.027225701061802
scalar abilene_cost_network.node[6].content_store 	kappa[6] 	1
scalar abilene_cost_network.node[7].core_layer 	interests[7] 	315888
scalar abilene_cost_network.node[7].core_layer 	repo_load[7] 	96279
scalar abilene_cost_network.node[7].core_layer 	data[7] 	161965
scalar abilene_cost_network.node[7].content_store 	p_hit[7] 	0.17759459048777
scalar abilene_cost_network.node[7].content_store 	hits[7] 	56100
scalar abilene_cost_network.node[7].content_store 	misses[7] 	259788
scalar abilene_cost_network.node[7].content_store 	decision_yes[7] 	27788
scalar abilene_cost_network.node[7].content_store 	decision_no[7] 	230456
scalar abilene_cost_network.node[7].content_store 	decision_ratio[7] 	0.10760366165332
scalar abilene_cost_network.node[7].content_store 	correction_factor[7] 	0.027225701061802
scalar abilene_cost_network.node[7].content_store 	kappa[7] 	1
scalar abilene_cost_network.node[8].core_layer 	interests[8] 	254149
scalar abilene_cost_network.node[8].core_layer 	data[8] 	228988
scalar abilene_cost_network.node[8].content_store 	p_hit[8] 	0.084080598389134
scalar abilene_cost_network.node[8].content_store 	hits[8] 	21369
scalar abilene_cost_network.node[8].content_store 	misses[8] 	232780
scalar abilene_cost_network.node[8].content_store 	decision_yes[8] 	8563
scalar abilene_cost_network.node[8].content_store 	decision_no[8] 	220425
scalar abilene_cost_network.node[8].content_store 	decision_ratio[8] 	0.037394972662323
scalar abilene_cost_network.node[8].content_store 	correction_factor[8] 	0.027225701061802
scalar abilene_cost_network.node[8].content_store 	kappa[8] 	1
scalar abilene_cost_network.node[9].core_layer 	interests[9] 	125717
scalar abilene_cost_network.node[9].core_layer 	data[9] 	125717
scalar abilene_cost_network.node[9].content_store 	p_hit[9] 	0
scalar abilene_cost_network.node[9].content_store 	hits[9] 	0
scalar abilene_cost_network.node[9].content_store 	misses[9] 	125717
scalar abilene_cost_network.node[9].content_store 	decision_yes[9] 	0
scalar abilene_cost_network.node[9].content_store 	decision_no[9] 	125717
scalar abilene_cost_network.node[9].content_store 	decision_ratio[9] 	0
scalar abilene_cost_network.node[9].content_store 	correction_factor[9] 	0.027225701061802
scalar abilene_cost_network.node[9].content_store 	kappa[9] 	1
scalar abilene_cost_network.node[10].core_layer 	interests[10] 	190111
scalar abilene_cost_network.node[10].core_layer 	repo_load[10] 	190111
scalar abilene_cost_network.node[10].core_layer 	data[10] 	0
scalar abilene_cost_network.node[10].content_store 	p_hit[10] 	0
scalar abilene_cost_network.node[10].content_store 	hits[10] 	0
scalar abilene_cost_network.node[10].content_store 	misses[10] 	190111
scalar abilene_cost_network.node[10].content_store 	decision_yes[10] 	0
scalar abilene_cost_network.node[10].content_store 	decision_no[10] 	190111
scalar abilene_cost_network.node[10].content_store 	decision_ratio[10] 	0
scalar abilene_cost_network.node[10].content_store 	correction_factor[10] 	0.027225701061802
scalar abilene_cost_network.node[10].content_store 	kappa[10] 	1
scalar abilene_cost_network.client[2] 	hdistance[2] 	2.7344417148389
scalar abilene_cost_network.client[2] 	downloads[2] 	178699
scalar abilene_cost_network.client[2] 	avg_time[2] 	0.012115973164
scalar abilene_cost_network.client[7] 	hdistance[7] 	2.3458073574838
scalar abilene_cost_network.client[7] 	downloads[7] 	178050
scalar abilene_cost_network.client[7] 	avg_time[7] 	0.011363375999
scalar abilene_cost_network.client[8] 	hdistance[8] 	2.4950063054542
scalar abilene_cost_network.client[8] 	downloads[8] 	177624
scalar abilene_cost_network.client[8] 	avg_time[8] 	0.012809770282
