version 2
run General-11-20141007-11:14:27-473
attr D costaware0.1
attr F nrr
attr R lru
attr a 1
attr configname General
attr csize 1e3
attr ctlg 1e5
attr datetime 20141007-11:14:27
attr experiment General
attr inifile omnetpp.ini
attr iterationvars "$net=abilene_cost, $rep=4, $priceratiovalue=10, $weights=0.333_0.333_0.334, $lambda=100, $a=1, $ctlg=1e5, $F=nrr, $ttl=10, $D=costaware0.1, $xi=1, $R=lru, $csize=1e3, $pricebits=0, $window=60, $variance=0.05, $mytime=1800"
attr iterationvars2 "$net=abilene_cost, $rep=4, $priceratiovalue=10, $weights=0.333_0.333_0.334, $lambda=100, $a=1, $ctlg=1e5, $F=nrr, $ttl=10, $D=costaware0.1, $xi=1, $R=lru, $csize=1e3, $pricebits=0, $window=60, $variance=0.05, $mytime=1800, $repetition=0"
attr lambda 100
attr measurement "$net=abilene_cost, $rep=4, $priceratiovalue=10, $weights=0.333_0.333_0.334, $lambda=100, $a=1, $ctlg=1e5, $F=nrr, $ttl=10, $D=costaware0.1, $xi=1, $R=lru, $csize=1e3, $pricebits=0, $window=60, $variance=0.05, $mytime=1800"
attr mytime 1800
attr net abilene_cost
attr network networks.${net=abilene_cost,geant_cost}_network
attr pricebits 0
attr priceratiovalue 10
attr processid 473
attr rep 4
attr repetition 0
attr replication #0
attr resultdir results
attr runnumber 11
attr seedset 4
attr ttl 10
attr variance 0.05
attr weights 0.333_0.333_0.334
attr window 60
attr xi 1

scalar . 	a 	1
scalar . 	csize 	1e3
scalar . 	ctlg 	1e5
scalar . 	lambda 	100
scalar . 	mytime 	1800
scalar . 	pricebits 	0
scalar . 	priceratiovalue 	10
scalar . 	rep 	4
scalar . 	ttl 	10
scalar . 	variance 	0.05
scalar . 	window 	60
scalar . 	xi 	1
scalar abilene_cost_network.content_distribution 	repo-0 	2
scalar abilene_cost_network.content_distribution 	repo-1 	0
scalar abilene_cost_network.content_distribution 	repo-2 	10
scalar abilene_cost_network.content_distribution 	client-0 	6
scalar abilene_cost_network.content_distribution 	client-1 	2
scalar abilene_cost_network.content_distribution 	client-2 	4
scalar abilene_cost_network.content_distribution 	repo-0_card 	33274
scalar abilene_cost_network.content_distribution 	repo-0_price 	0
scalar abilene_cost_network.content_distribution 	repo-1_card 	33153
scalar abilene_cost_network.content_distribution 	repo-1_price 	1
scalar abilene_cost_network.content_distribution 	repo-2_card 	33573
scalar abilene_cost_network.content_distribution 	repo-2_price 	10
scalar abilene_cost_network.statistics 	repo_popularity[0] 	0.33945880017902
scalar abilene_cost_network.statistics 	repo_popularity[1] 	0.30988277584688
scalar abilene_cost_network.statistics 	repo_popularity[2] 	0.35065842397411
scalar abilene_cost_network.statistics 	stabilization_time 	36060
scalar abilene_cost_network.statistics 	p_hit 	0.10258532167172
scalar abilene_cost_network.statistics 	interests 	165110.45454545
scalar abilene_cost_network.statistics 	data 	116019.90909091
scalar abilene_cost_network.statistics 	hdistance 	3.0454127671425
scalar abilene_cost_network.statistics 	avg_time 	0.014052848535
scalar abilene_cost_network.statistics 	downloads 	535513
scalar abilene_cost_network.statistics 	total_cost 	888794
scalar abilene_cost_network.statistics 	total_replicas 	100000
scalar abilene_cost_network.statistics 	inner_hit 	0.35279442329131
scalar abilene_cost_network.node[0].core_layer 	interests[0] 	125227
scalar abilene_cost_network.node[0].core_layer 	repo_load[0] 	86284
scalar abilene_cost_network.node[0].core_layer 	data[0] 	0
scalar abilene_cost_network.node[0].core_layer 	repo_int[0] 	346587
scalar abilene_cost_network.node[0].content_store 	p_hit[0] 	0.31097926166082
scalar abilene_cost_network.node[0].content_store 	hits[0] 	38943
scalar abilene_cost_network.node[0].content_store 	misses[0] 	86284
scalar abilene_cost_network.node[0].content_store 	decision_yes[0] 	2363
scalar abilene_cost_network.node[0].content_store 	decision_no[0] 	83921
scalar abilene_cost_network.node[0].content_store 	decision_ratio[0] 	0.027386305688192
scalar abilene_cost_network.node[0].content_store 	correction_factor[0] 	0.027225701061802
scalar abilene_cost_network.node[0].content_store 	kappa[0] 	1
scalar abilene_cost_network.node[1].core_layer 	interests[1] 	200713
scalar abilene_cost_network.node[1].core_layer 	data[1] 	185146
scalar abilene_cost_network.node[1].content_store 	p_hit[1] 	0.077568468410118
scalar abilene_cost_network.node[1].content_store 	hits[1] 	15569
scalar abilene_cost_network.node[1].content_store 	misses[1] 	185144
scalar abilene_cost_network.node[1].content_store 	decision_yes[1] 	16745
scalar abilene_cost_network.node[1].content_store 	decision_no[1] 	168401
scalar abilene_cost_network.node[1].content_store 	decision_ratio[1] 	0.090442137556307
scalar abilene_cost_network.node[1].content_store 	correction_factor[1] 	0.027225701061802
scalar abilene_cost_network.node[1].content_store 	kappa[1] 	1
scalar abilene_cost_network.node[2].core_layer 	interests[2] 	447998
scalar abilene_cost_network.node[2].core_layer 	repo_load[2] 	180052
scalar abilene_cost_network.node[2].core_layer 	data[2] 	226798
scalar abilene_cost_network.node[2].content_store 	p_hit[2] 	0.089216916146947
scalar abilene_cost_network.node[2].content_store 	hits[2] 	39969
scalar abilene_cost_network.node[2].content_store 	misses[2] 	408029
scalar abilene_cost_network.node[2].content_store 	decision_yes[2] 	16918
scalar abilene_cost_network.node[2].content_store 	decision_no[2] 	389932
scalar abilene_cost_network.node[2].content_store 	decision_ratio[2] 	0.041582892958093
scalar abilene_cost_network.node[2].content_store 	correction_factor[2] 	0.027225701061802
scalar abilene_cost_network.node[2].content_store 	kappa[2] 	1
scalar abilene_cost_network.node[3].core_layer 	interests[3] 	299908
scalar abilene_cost_network.node[3].core_layer 	data[3] 	282548
scalar abilene_cost_network.node[3].content_store 	p_hit[3] 	0.052152660149112
scalar abilene_cost_network.node[3].content_store 	hits[3] 	15641
scalar abilene_cost_network.node[3].content_store 	misses[3] 	284267
scalar abilene_cost_network.node[3].content_store 	decision_yes[3] 	8933
scalar abilene_cost_network.node[3].content_store 	decision_no[3] 	273615
scalar abilene_cost_network.node[3].content_store 	decision_ratio[3] 	0.031615867038521
scalar abilene_cost_network.node[3].content_store 	correction_factor[3] 	0.027225701061802
scalar abilene_cost_network.node[3].content_store 	kappa[3] 	1
scalar abilene_cost_network.node[4].core_layer 	interests[4] 	196393
scalar abilene_cost_network.node[4].core_layer 	data[4] 	166517
scalar abilene_cost_network.node[4].content_store 	p_hit[4] 	0.14545324935206
scalar abilene_cost_network.node[4].content_store 	hits[4] 	28566
scalar abilene_cost_network.node[4].content_store 	misses[4] 	167827
scalar abilene_cost_network.node[4].content_store 	decision_yes[4] 	8033
scalar abilene_cost_network.node[4].content_store 	decision_no[4] 	158484
scalar abilene_cost_network.node[4].content_store 	decision_ratio[4] 	0.048241320705994
scalar abilene_cost_network.node[4].content_store 	correction_factor[4] 	0.027225701061802
scalar abilene_cost_network.node[4].content_store 	kappa[4] 	1
scalar abilene_cost_network.node[5].core_layer 	interests[5] 	16971
scalar abilene_cost_network.node[5].core_layer 	data[5] 	16775
scalar abilene_cost_network.node[5].content_store 	p_hit[5] 	0.011549113193094
scalar abilene_cost_network.node[5].content_store 	hits[5] 	196
scalar abilene_cost_network.node[5].content_store 	misses[5] 	16775
scalar abilene_cost_network.node[5].content_store 	decision_yes[5] 	0
scalar abilene_cost_network.node[5].content_store 	decision_no[5] 	16775
scalar abilene_cost_network.node[5].content_store 	decision_ratio[5] 	0
scalar abilene_cost_network.node[5].content_store 	correction_factor[5] 	0.027225701061802
scalar abilene_cost_network.node[5].content_store 	kappa[5] 	1
scalar abilene_cost_network.node[6].core_layer 	interests[6] 	187437
scalar abilene_cost_network.node[6].core_layer 	data[6] 	172423
scalar abilene_cost_network.node[6].content_store 	p_hit[6] 	0.064779099110635
scalar abilene_cost_network.node[6].content_store 	hits[6] 	12142
scalar abilene_cost_network.node[6].content_store 	misses[6] 	175295
scalar abilene_cost_network.node[6].content_store 	decision_yes[6] 	8149
scalar abilene_cost_network.node[6].content_store 	decision_no[6] 	164274
scalar abilene_cost_network.node[6].content_store 	decision_ratio[6] 	0.04726167622649
scalar abilene_cost_network.node[6].content_store 	correction_factor[6] 	0.027225701061802
scalar abilene_cost_network.node[6].content_store 	kappa[6] 	1
scalar abilene_cost_network.node[7].core_layer 	interests[7] 	170479
scalar abilene_cost_network.node[7].core_layer 	data[7] 	159235
scalar abilene_cost_network.node[7].content_store 	p_hit[7] 	0.065972935082913
scalar abilene_cost_network.node[7].content_store 	hits[7] 	11247
scalar abilene_cost_network.node[7].content_store 	misses[7] 	159232
scalar abilene_cost_network.node[7].content_store 	decision_yes[7] 	8042
scalar abilene_cost_network.node[7].content_store 	decision_no[7] 	151193
scalar abilene_cost_network.node[7].content_store 	decision_ratio[7] 	0.050503972116683
scalar abilene_cost_network.node[7].content_store 	correction_factor[7] 	0.027225701061802
scalar abilene_cost_network.node[7].content_store 	kappa[7] 	1
scalar abilene_cost_network.node[8].core_layer 	interests[8] 	44396
scalar abilene_cost_network.node[8].core_layer 	data[8] 	36658
scalar abilene_cost_network.node[8].content_store 	p_hit[8] 	0.17388953959816
scalar abilene_cost_network.node[8].content_store 	hits[8] 	7720
scalar abilene_cost_network.node[8].content_store 	misses[8] 	36676
scalar abilene_cost_network.node[8].content_store 	decision_yes[8] 	7316
scalar abilene_cost_network.node[8].content_store 	decision_no[8] 	29342
scalar abilene_cost_network.node[8].content_store 	decision_ratio[8] 	0.19957444486879
scalar abilene_cost_network.node[8].content_store 	correction_factor[8] 	0.027225701061802
scalar abilene_cost_network.node[8].content_store 	kappa[8] 	1
scalar abilene_cost_network.node[9].core_layer 	interests[9] 	36657
scalar abilene_cost_network.node[9].core_layer 	data[9] 	30119
scalar abilene_cost_network.node[9].content_store 	p_hit[9] 	0.17838339198516
scalar abilene_cost_network.node[9].content_store 	hits[9] 	6539
scalar abilene_cost_network.node[9].content_store 	misses[9] 	30118
scalar abilene_cost_network.node[9].content_store 	decision_yes[9] 	7390
scalar abilene_cost_network.node[9].content_store 	decision_no[9] 	22729
scalar abilene_cost_network.node[9].content_store 	decision_ratio[9] 	0.24536007171553
scalar abilene_cost_network.node[9].content_store 	correction_factor[9] 	0.027225701061802
scalar abilene_cost_network.node[9].content_store 	kappa[9] 	1
scalar abilene_cost_network.node[10].core_layer 	interests[10] 	90036
scalar abilene_cost_network.node[10].core_layer 	repo_load[10] 	80251
scalar abilene_cost_network.node[10].core_layer 	data[10] 	0
scalar abilene_cost_network.node[10].content_store 	p_hit[10] 	0.10867875072193
scalar abilene_cost_network.node[10].content_store 	hits[10] 	9785
scalar abilene_cost_network.node[10].content_store 	misses[10] 	80251
scalar abilene_cost_network.node[10].content_store 	decision_yes[10] 	21842
scalar abilene_cost_network.node[10].content_store 	decision_no[10] 	58409
scalar abilene_cost_network.node[10].content_store 	decision_ratio[10] 	0.27217106328893
scalar abilene_cost_network.node[10].content_store 	correction_factor[10] 	0.027225701061802
scalar abilene_cost_network.node[10].content_store 	kappa[10] 	1
scalar abilene_cost_network.client[2] 	hdistance[2] 	1.6904894481875
scalar abilene_cost_network.client[2] 	downloads[2] 	179590
scalar abilene_cost_network.client[2] 	avg_time[2] 	0.00794119421
scalar abilene_cost_network.client[4] 	hdistance[4] 	3.3527091887538
scalar abilene_cost_network.client[4] 	downloads[4] 	178762
scalar abilene_cost_network.client[4] 	avg_time[4] 	0.013215492383
scalar abilene_cost_network.client[6] 	hdistance[6] 	4.0930396644861
scalar abilene_cost_network.client[6] 	downloads[6] 	177161
scalar abilene_cost_network.client[6] 	avg_time[6] 	0.021001859012
