version 2
run General-2-20150723-17:35:58-29229
attr C 1e6
attr D lce
attr F spr
attr R partitionedn
attr a 1
attr brates 0.3_0.7_1.5_2.5_3.5
attr configname General
attr ctlg 1e8
attr datetime 20150723-17:35:58
attr experiment General
attr inifile omnetpp.ini
attr iterationvars "$net=abilene_nodelay, $rep=2, $lambda=100, $a=1, $ctlg=1e8, $brates=0.3_0.7_1.5_2.5_3.5, $F=spr, $ttl=1000, $D=lce, $R=partitionedn, $C=1e6, $window=60, $variance=0.05, $mytime=180000"
attr iterationvars2 "$net=abilene_nodelay, $rep=2, $lambda=100, $a=1, $ctlg=1e8, $brates=0.3_0.7_1.5_2.5_3.5, $F=spr, $ttl=1000, $D=lce, $R=partitionedn, $C=1e6, $window=60, $variance=0.05, $mytime=180000, $repetition=0"
attr lambda 100
attr measurement "$net=abilene_nodelay, $rep=2, $lambda=100, $a=1, $ctlg=1e8, $brates=0.3_0.7_1.5_2.5_3.5, $F=spr, $ttl=1000, $D=lce, $R=partitionedn, $C=1e6, $window=60, $variance=0.05, $mytime=180000"
attr mytime 180000
attr net abilene_nodelay
attr network networks.${net=abilene_nodelay}_network
attr processid 29229
attr rep 2
attr repetition 0
attr replication #0
attr resultdir results
attr runnumber 2
attr seedset 2
attr ttl 1000
attr variance 0.05
attr window 60

scalar . 	C 	1e6
scalar . 	a 	1
scalar . 	ctlg 	1e8
scalar . 	lambda 	100
scalar . 	mytime 	180000
scalar . 	rep 	2
scalar . 	ttl 	1000
scalar . 	variance 	0.05
scalar . 	window 	60
scalar abilene_nodelay_network.content_distribution 	repo-0 	4
scalar abilene_nodelay_network.content_distribution 	repo-1 	9
scalar abilene_nodelay_network.content_distribution 	repo-2 	6
scalar abilene_nodelay_network.content_distribution 	repo-3 	3
scalar abilene_nodelay_network.content_distribution 	repo-4 	7
scalar abilene_nodelay_network.content_distribution 	repo-5 	8
scalar abilene_nodelay_network.content_distribution 	repo-6 	10
scalar abilene_nodelay_network.content_distribution 	repo-7 	0
scalar abilene_nodelay_network.content_distribution 	repo-8 	5
scalar abilene_nodelay_network.content_distribution 	repo-9 	2
scalar abilene_nodelay_network.content_distribution 	repo-10 	1
scalar abilene_nodelay_network.content_distribution 	client-0 	0
scalar abilene_nodelay_network.content_distribution 	client-1 	6
scalar abilene_nodelay_network.content_distribution 	client-2 	7
scalar abilene_nodelay_network.content_distribution 	client-3 	10
scalar abilene_nodelay_network.content_distribution 	client-4 	9
scalar abilene_nodelay_network.content_distribution 	client-5 	3
scalar abilene_nodelay_network.content_distribution 	client-6 	5
scalar abilene_nodelay_network.content_distribution 	client-7 	4
scalar abilene_nodelay_network.content_distribution 	client-8 	1
scalar abilene_nodelay_network.content_distribution 	client-9 	2
scalar abilene_nodelay_network.content_distribution 	client-10 	8
scalar abilene_nodelay_network.content_distribution 	repo-0_card 	9087551
scalar abilene_nodelay_network.content_distribution 	repo-0_price 	0
scalar abilene_nodelay_network.content_distribution 	repo-1_card 	9091215
scalar abilene_nodelay_network.content_distribution 	repo-1_price 	0
scalar abilene_nodelay_network.content_distribution 	repo-2_card 	9091824
scalar abilene_nodelay_network.content_distribution 	repo-2_price 	0
scalar abilene_nodelay_network.content_distribution 	repo-3_card 	9094649
scalar abilene_nodelay_network.content_distribution 	repo-3_price 	0
scalar abilene_nodelay_network.content_distribution 	repo-4_card 	9089477
scalar abilene_nodelay_network.content_distribution 	repo-4_price 	0
scalar abilene_nodelay_network.content_distribution 	repo-5_card 	9089387
scalar abilene_nodelay_network.content_distribution 	repo-5_price 	0
scalar abilene_nodelay_network.content_distribution 	repo-6_card 	9091160
scalar abilene_nodelay_network.content_distribution 	repo-6_price 	0
scalar abilene_nodelay_network.content_distribution 	repo-7_card 	9083168
scalar abilene_nodelay_network.content_distribution 	repo-7_price 	0
scalar abilene_nodelay_network.content_distribution 	repo-8_card 	9096171
scalar abilene_nodelay_network.content_distribution 	repo-8_price 	0
scalar abilene_nodelay_network.content_distribution 	repo-9_card 	9093129
scalar abilene_nodelay_network.content_distribution 	repo-9_price 	0
scalar abilene_nodelay_network.content_distribution 	repo-10_card 	9092269
scalar abilene_nodelay_network.content_distribution 	repo-10_price 	0
scalar abilene_nodelay_network.statistics 	stabilization_time 	36060
scalar abilene_nodelay_network.statistics 	p_hit 	0.40706520571874
scalar abilene_nodelay_network.statistics 	interests 	31254659.636364
scalar abilene_nodelay_network.statistics 	data 	11974840.727273
scalar abilene_nodelay_network.statistics 	hdistance 	0.8912668830118
scalar abilene_nodelay_network.statistics 	avg_time 	0
scalar abilene_nodelay_network.statistics 	downloads 	197992831
scalar abilene_nodelay_network.statistics 	total_cost 	0
scalar abilene_nodelay_network.statistics 	total_replicas 	100000000
scalar abilene_nodelay_network.statistics 	"representations_downloaded 0.334015:0.0202461:0.0133129:0.0100856:0.622341:" 	0
scalar abilene_nodelay_network.statistics 	"slots_per_representation 100:233:500:833:1167:" 	0
scalar abilene_nodelay_network.statistics 	inner_hit 	0.63570156234596
scalar abilene_nodelay_network.statistics 	execution_time 	9270
scalar abilene_nodelay_network.node[0].core_layer 	interests[0] 	23286307
scalar abilene_nodelay_network.node[0].core_layer 	repo_load[0] 	6425090
scalar abilene_nodelay_network.node[0].core_layer 	data[0] 	5260458
scalar abilene_nodelay_network.node[0].core_layer 	slots_sent[face$o[1]->client[0]] 	13869152368
scalar abilene_nodelay_network.node[0].core_layer 	slots_sent[face$o[2]->node[1]] 	686047169
scalar abilene_nodelay_network.node[0].core_layer 	slots_sent[face$o[3]->node[10]] 	194432439
scalar abilene_nodelay_network.node[0].content_store 	p_hit[0] 	0.49817942364154
scalar abilene_nodelay_network.node[0].content_store 	hits[0] 	11600759
scalar abilene_nodelay_network.node[0].content_store 	misses[0] 	11685548
scalar abilene_nodelay_network.node[0].content_store 	decision_yes[0] 	5260458
scalar abilene_nodelay_network.node[0].content_store 	decision_no[0] 	6425090
scalar abilene_nodelay_network.node[0].content_store 	decision_ratio[0] 	0.45016784835422
scalar abilene_nodelay_network.node[0].content_store 	"representation_breakdown[0] 0x7ffc8ed9b358:0x7ffc8ed9b358:0x7ffc8ed9b358:0x7ffc8ed9b358:0x7ffc8ed9b358:" 	0
scalar abilene_nodelay_network.node[0].proactive_component 	hdistance[0].proactive_component 	1.9888485677672
scalar abilene_nodelay_network.node[0].proactive_component 	downloads[0].proactive_component 	853702
scalar abilene_nodelay_network.node[0].proactive_component 	avg_time[0].proactive_component 	0
scalar abilene_nodelay_network.node[1].core_layer 	interests[1] 	35378687
scalar abilene_nodelay_network.node[1].core_layer 	repo_load[1] 	7847974
scalar abilene_nodelay_network.node[1].core_layer 	data[1] 	15559730
scalar abilene_nodelay_network.node[1].core_layer 	slots_sent[face$o[1]->client[1]] 	12742802988
scalar abilene_nodelay_network.node[1].core_layer 	slots_sent[face$o[2]->node[0]] 	915236023
scalar abilene_nodelay_network.node[1].core_layer 	slots_sent[face$o[3]->node[10]] 	677399038
scalar abilene_nodelay_network.node[1].core_layer 	slots_sent[face$o[4]->node[2]] 	1687561802
scalar abilene_nodelay_network.node[1].content_store 	p_hit[1] 	0.3383670795923
scalar abilene_nodelay_network.node[1].content_store 	hits[1] 	11970983
scalar abilene_nodelay_network.node[1].content_store 	misses[1] 	23407704
scalar abilene_nodelay_network.node[1].content_store 	decision_yes[1] 	15559730
scalar abilene_nodelay_network.node[1].content_store 	decision_no[1] 	7847974
scalar abilene_nodelay_network.node[1].content_store 	decision_ratio[1] 	0.66472687795437
scalar abilene_nodelay_network.node[1].content_store 	"representation_breakdown[1] 0x7ffc8ed9b358:0x7ffc8ed9b358:0x7ffc8ed9b358:0x7ffc8ed9b358:0x7ffc8ed9b358:" 	0
scalar abilene_nodelay_network.node[1].proactive_component 	hdistance[1].proactive_component 	1.9914382716442
scalar abilene_nodelay_network.node[1].proactive_component 	downloads[1].proactive_component 	2046199
scalar abilene_nodelay_network.node[1].proactive_component 	avg_time[1].proactive_component 	0
scalar abilene_nodelay_network.node[2].core_layer 	interests[2] 	44141952
scalar abilene_nodelay_network.node[2].core_layer 	repo_load[2] 	6625358
scalar abilene_nodelay_network.node[2].core_layer 	data[2] 	23189515
scalar abilene_nodelay_network.node[2].core_layer 	slots_sent[face$o[1]->client[2]] 	14214855557
scalar abilene_nodelay_network.node[2].core_layer 	slots_sent[face$o[2]->node[1]] 	1892101312
scalar abilene_nodelay_network.node[2].core_layer 	slots_sent[face$o[3]->node[3]] 	2232414901
scalar abilene_nodelay_network.node[2].core_layer 	slots_sent[face$o[4]->node[8]] 	937422316
scalar abilene_nodelay_network.node[2].content_store 	p_hit[2] 	0.32456831542022
scalar abilene_nodelay_network.node[2].content_store 	hits[2] 	14327079
scalar abilene_nodelay_network.node[2].content_store 	misses[2] 	29814873
scalar abilene_nodelay_network.node[2].content_store 	decision_yes[2] 	23189515
scalar abilene_nodelay_network.node[2].content_store 	decision_no[2] 	6625358
scalar abilene_nodelay_network.node[2].content_store 	decision_ratio[2] 	0.7777834572698
scalar abilene_nodelay_network.node[2].content_store 	"representation_breakdown[2] 0x7ffc8ed9b358:0x7ffc8ed9b358:0x7ffc8ed9b358:0x7ffc8ed9b358:0x7ffc8ed9b358:" 	0
scalar abilene_nodelay_network.node[2].proactive_component 	hdistance[2].proactive_component 	2.0040947078312
scalar abilene_nodelay_network.node[2].proactive_component 	downloads[2].proactive_component 	2872244
scalar abilene_nodelay_network.node[2].proactive_component 	avg_time[2].proactive_component 	0
scalar abilene_nodelay_network.node[3].core_layer 	interests[3] 	42035280
scalar abilene_nodelay_network.node[3].core_layer 	repo_load[3] 	6488270
scalar abilene_nodelay_network.node[3].core_layer 	data[3] 	21293640
scalar abilene_nodelay_network.node[3].core_layer 	slots_sent[face$o[1]->client[3]] 	14313346832
scalar abilene_nodelay_network.node[3].core_layer 	slots_sent[face$o[2]->node[2]] 	2189764904
scalar abilene_nodelay_network.node[3].core_layer 	slots_sent[face$o[3]->node[4]] 	1451074726
scalar abilene_nodelay_network.node[3].core_layer 	slots_sent[face$o[4]->node[7]] 	1022147636
scalar abilene_nodelay_network.node[3].content_store 	p_hit[3] 	0.33908112423659
scalar abilene_nodelay_network.node[3].content_store 	hits[3] 	14253370
scalar abilene_nodelay_network.node[3].content_store 	misses[3] 	27781910
scalar abilene_nodelay_network.node[3].content_store 	decision_yes[3] 	21293640
scalar abilene_nodelay_network.node[3].content_store 	decision_no[3] 	6488270
scalar abilene_nodelay_network.node[3].content_store 	decision_ratio[3] 	0.76645702185343
scalar abilene_nodelay_network.node[3].content_store 	"representation_breakdown[3] 0x7ffc8ed9b358:0x7ffc8ed9b358:0x7ffc8ed9b358:0x7ffc8ed9b358:0x7ffc8ed9b358:" 	0
scalar abilene_nodelay_network.node[3].proactive_component 	hdistance[3].proactive_component 	1.9788501338384
scalar abilene_nodelay_network.node[3].proactive_component 	downloads[3].proactive_component 	2720821
scalar abilene_nodelay_network.node[3].proactive_component 	avg_time[3].proactive_component 	0
scalar abilene_nodelay_network.node[4].core_layer 	interests[4] 	28807654
scalar abilene_nodelay_network.node[4].core_layer 	repo_load[4] 	6164054
scalar abilene_nodelay_network.node[4].core_layer 	data[4] 	9929611
scalar abilene_nodelay_network.node[4].core_layer 	slots_sent[face$o[1]->client[4]] 	14375681053
scalar abilene_nodelay_network.node[4].core_layer 	slots_sent[face$o[2]->node[3]] 	1212449755
scalar abilene_nodelay_network.node[4].core_layer 	slots_sent[face$o[3]->node[5]] 	769713216
scalar abilene_nodelay_network.node[4].content_store 	p_hit[4] 	0.44134065897903
scalar abilene_nodelay_network.node[4].content_store 	hits[4] 	12713989
scalar abilene_nodelay_network.node[4].content_store 	misses[4] 	16093665
scalar abilene_nodelay_network.node[4].content_store 	decision_yes[4] 	9929611
scalar abilene_nodelay_network.node[4].content_store 	decision_no[4] 	6164054
scalar abilene_nodelay_network.node[4].content_store 	decision_ratio[4] 	0.61698879652335
scalar abilene_nodelay_network.node[4].content_store 	"representation_breakdown[4] 0x7ffc8ed9b358:0x7ffc8ed9b358:0x7ffc8ed9b358:0x7ffc8ed9b358:0x7ffc8ed9b358:" 	0
scalar abilene_nodelay_network.node[4].proactive_component 	hdistance[4].proactive_component 	1.9670899260254
scalar abilene_nodelay_network.node[4].proactive_component 	downloads[4].proactive_component 	1426706
scalar abilene_nodelay_network.node[4].proactive_component 	avg_time[4].proactive_component 	0
scalar abilene_nodelay_network.node[5].core_layer 	interests[5] 	24533618
scalar abilene_nodelay_network.node[5].core_layer 	repo_load[5] 	6060620
scalar abilene_nodelay_network.node[5].core_layer 	data[5] 	6292784
scalar abilene_nodelay_network.node[5].core_layer 	slots_sent[face$o[1]->client[5]] 	14249270684
scalar abilene_nodelay_network.node[5].core_layer 	slots_sent[face$o[2]->node[4]] 	650233172
scalar abilene_nodelay_network.node[5].core_layer 	slots_sent[face$o[3]->node[6]] 	471960912
scalar abilene_nodelay_network.node[5].content_store 	p_hit[5] 	0.49647035345541
scalar abilene_nodelay_network.node[5].content_store 	hits[5] 	12180214
scalar abilene_nodelay_network.node[5].content_store 	misses[5] 	12353404
scalar abilene_nodelay_network.node[5].content_store 	decision_yes[5] 	6292784
scalar abilene_nodelay_network.node[5].content_store 	decision_no[5] 	6060620
scalar abilene_nodelay_network.node[5].content_store 	decision_ratio[5] 	0.50939676222036
scalar abilene_nodelay_network.node[5].content_store 	"representation_breakdown[5] 0x7ffc8ed9b358:0x7ffc8ed9b358:0x7ffc8ed9b358:0x7ffc8ed9b358:0x7ffc8ed9b358:" 	0
scalar abilene_nodelay_network.node[5].proactive_component 	hdistance[5].proactive_component 	1.9685232722614
scalar abilene_nodelay_network.node[5].proactive_component 	downloads[5].proactive_component 	1049855
scalar abilene_nodelay_network.node[5].proactive_component 	avg_time[5].proactive_component 	0
scalar abilene_nodelay_network.node[6].core_layer 	interests[6] 	26620759
scalar abilene_nodelay_network.node[6].core_layer 	repo_load[6] 	6113502
scalar abilene_nodelay_network.node[6].core_layer 	data[6] 	8166507
scalar abilene_nodelay_network.node[6].core_layer 	slots_sent[face$o[1]->client[6]] 	14193491120
scalar abilene_nodelay_network.node[6].core_layer 	slots_sent[face$o[2]->node[5]] 	531957013
scalar abilene_nodelay_network.node[6].core_layer 	slots_sent[face$o[3]->node[7]] 	1003126686
scalar abilene_nodelay_network.node[6].content_store 	p_hit[6] 	0.46357618879311
scalar abilene_nodelay_network.node[6].content_store 	hits[6] 	12340750
scalar abilene_nodelay_network.node[6].content_store 	misses[6] 	14280009
scalar abilene_nodelay_network.node[6].content_store 	decision_yes[6] 	8166507
scalar abilene_nodelay_network.node[6].content_store 	decision_no[6] 	6113502
scalar abilene_nodelay_network.node[6].content_store 	decision_ratio[6] 	0.57188388326646
scalar abilene_nodelay_network.node[6].content_store 	"representation_breakdown[6] 0x7ffc8ed9b358:0x7ffc8ed9b358:0x7ffc8ed9b358:0x7ffc8ed9b358:0x7ffc8ed9b358:" 	0
scalar abilene_nodelay_network.node[6].proactive_component 	hdistance[6].proactive_component 	1.9622586202914
scalar abilene_nodelay_network.node[6].proactive_component 	downloads[6].proactive_component 	1255439
scalar abilene_nodelay_network.node[6].proactive_component 	avg_time[6].proactive_component 	0
scalar abilene_nodelay_network.node[7].core_layer 	interests[7] 	33634194
scalar abilene_nodelay_network.node[7].core_layer 	repo_load[7] 	6579526
scalar abilene_nodelay_network.node[7].core_layer 	data[7] 	13731555
scalar abilene_nodelay_network.node[7].core_layer 	slots_sent[face$o[1]->client[7]] 	14305777808
scalar abilene_nodelay_network.node[7].core_layer 	slots_sent[face$o[2]->node[3]] 	900075329
scalar abilene_nodelay_network.node[7].core_layer 	slots_sent[face$o[3]->node[6]] 	1220935904
scalar abilene_nodelay_network.node[7].core_layer 	slots_sent[face$o[4]->node[8]] 	827037532
scalar abilene_nodelay_network.node[7].content_store 	p_hit[7] 	0.39611809933665
scalar abilene_nodelay_network.node[7].content_store 	hits[7] 	13323113
scalar abilene_nodelay_network.node[7].content_store 	misses[7] 	20311081
scalar abilene_nodelay_network.node[7].content_store 	decision_yes[7] 	13731555
scalar abilene_nodelay_network.node[7].content_store 	decision_no[7] 	6579526
scalar abilene_nodelay_network.node[7].content_store 	decision_ratio[7] 	0.67606224405289
scalar abilene_nodelay_network.node[7].content_store 	"representation_breakdown[7] 0x7ffc8ed9b358:0x7ffc8ed9b358:0x7ffc8ed9b358:0x7ffc8ed9b358:0x7ffc8ed9b358:" 	0
scalar abilene_nodelay_network.node[7].proactive_component 	hdistance[7].proactive_component 	1.894047940431
scalar abilene_nodelay_network.node[7].proactive_component 	downloads[7].proactive_component 	1985464
scalar abilene_nodelay_network.node[7].proactive_component 	avg_time[7].proactive_component 	0
scalar abilene_nodelay_network.node[8].core_layer 	interests[8] 	32628947
scalar abilene_nodelay_network.node[8].core_layer 	repo_load[8] 	6800705
scalar abilene_nodelay_network.node[8].core_layer 	data[8] 	12833759
scalar abilene_nodelay_network.node[8].core_layer 	slots_sent[face$o[1]->client[8]] 	14135526478
scalar abilene_nodelay_network.node[8].core_layer 	slots_sent[face$o[2]->node[2]] 	825933733
scalar abilene_nodelay_network.node[8].core_layer 	slots_sent[face$o[3]->node[7]] 	825646886
scalar abilene_nodelay_network.node[8].core_layer 	slots_sent[face$o[4]->node[9]] 	1090847785
scalar abilene_nodelay_network.node[8].content_store 	p_hit[8] 	0.39825014886322
scalar abilene_nodelay_network.node[8].content_store 	hits[8] 	12994483
scalar abilene_nodelay_network.node[8].content_store 	misses[8] 	19634464
scalar abilene_nodelay_network.node[8].content_store 	decision_yes[8] 	12833759
scalar abilene_nodelay_network.node[8].content_store 	decision_no[8] 	6800705
scalar abilene_nodelay_network.node[8].content_store 	decision_ratio[8] 	0.65363429325089
scalar abilene_nodelay_network.node[8].content_store 	"representation_breakdown[8] 0x7ffc8ed9b358:0x7ffc8ed9b358:0x7ffc8ed9b358:0x7ffc8ed9b358:0x7ffc8ed9b358:" 	0
scalar abilene_nodelay_network.node[8].proactive_component 	hdistance[8].proactive_component 	1.8875696972044
scalar abilene_nodelay_network.node[8].proactive_component 	downloads[8].proactive_component 	1859472
scalar abilene_nodelay_network.node[8].proactive_component 	avg_time[8].proactive_component 	0
scalar abilene_nodelay_network.node[9].core_layer 	interests[9] 	26686952
scalar abilene_nodelay_network.node[9].core_layer 	repo_load[9] 	6088598
scalar abilene_nodelay_network.node[9].core_layer 	data[9] 	8173816
scalar abilene_nodelay_network.node[9].core_layer 	slots_sent[face$o[1]->client[9]] 	14260497488
scalar abilene_nodelay_network.node[9].core_layer 	slots_sent[face$o[2]->node[10]] 	633836322
scalar abilene_nodelay_network.node[9].core_layer 	slots_sent[face$o[3]->node[8]] 	930278852
scalar abilene_nodelay_network.node[9].content_store 	p_hit[9] 	0.4655660189294
scalar abilene_nodelay_network.node[9].content_store 	hits[9] 	12424538
scalar abilene_nodelay_network.node[9].content_store 	misses[9] 	14262414
scalar abilene_nodelay_network.node[9].content_store 	decision_yes[9] 	8173816
scalar abilene_nodelay_network.node[9].content_store 	decision_no[9] 	6088598
scalar abilene_nodelay_network.node[9].content_store 	decision_ratio[9] 	0.57310186059667
scalar abilene_nodelay_network.node[9].content_store 	"representation_breakdown[9] 0x7ffc8ed9b358:0x7ffc8ed9b358:0x7ffc8ed9b358:0x7ffc8ed9b358:0x7ffc8ed9b358:" 	0
scalar abilene_nodelay_network.node[9].proactive_component 	hdistance[9].proactive_component 	1.9324997714548
scalar abilene_nodelay_network.node[9].proactive_component 	downloads[9].proactive_component 	1247018
scalar abilene_nodelay_network.node[9].proactive_component 	avg_time[9].proactive_component 	0
scalar abilene_nodelay_network.node[10].core_layer 	interests[10] 	26046906
scalar abilene_nodelay_network.node[10].core_layer 	repo_load[10] 	6934782
scalar abilene_nodelay_network.node[10].core_layer 	data[10] 	7291873
scalar abilene_nodelay_network.node[10].core_layer 	slots_sent[face$o[1]->client[10]] 	13664722426
scalar abilene_nodelay_network.node[10].core_layer 	slots_sent[face$o[2]->node[0]] 	214825440
scalar abilene_nodelay_network.node[10].core_layer 	slots_sent[face$o[3]->node[1]] 	589085903
scalar abilene_nodelay_network.node[10].core_layer 	slots_sent[face$o[4]->node[9]] 	575991503
scalar abilene_nodelay_network.node[10].content_store 	p_hit[10] 	0.45380633692155
scalar abilene_nodelay_network.node[10].content_store 	hits[10] 	11820251
scalar abilene_nodelay_network.node[10].content_store 	misses[10] 	14226655
scalar abilene_nodelay_network.node[10].content_store 	decision_yes[10] 	7291873
scalar abilene_nodelay_network.node[10].content_store 	decision_no[10] 	6934782
scalar abilene_nodelay_network.node[10].content_store 	decision_ratio[10] 	0.51255006886721
scalar abilene_nodelay_network.node[10].content_store 	"representation_breakdown[10] 0x7ffc8ed9b358:0x7ffc8ed9b358:0x7ffc8ed9b358:0x7ffc8ed9b358:0x7ffc8ed9b358:" 	0
scalar abilene_nodelay_network.node[10].proactive_component 	hdistance[10].proactive_component 	1.9227723511944
scalar abilene_nodelay_network.node[10].proactive_component 	downloads[10].proactive_component 	1231489
scalar abilene_nodelay_network.node[10].proactive_component 	avg_time[10].proactive_component 	0
scalar abilene_nodelay_network.client[0] 	hdistance[0].real 	1.0252033291592
scalar abilene_nodelay_network.client[0] 	downloads[0].real 	17993853
scalar abilene_nodelay_network.client[0] 	avg_time[0].real 	0
scalar abilene_nodelay_network.client[1] 	hdistance[1].real 	0.92991875194964
scalar abilene_nodelay_network.client[1] 	downloads[1].real 	18003632
scalar abilene_nodelay_network.client[1] 	avg_time[1].real 	0
scalar abilene_nodelay_network.client[2] 	hdistance[2].real 	0.76659183395307
scalar abilene_nodelay_network.client[2] 	downloads[2].real 	17997031
scalar abilene_nodelay_network.client[2] 	avg_time[2].real 	0
scalar abilene_nodelay_network.client[3] 	hdistance[3].real 	0.78283224890308
scalar abilene_nodelay_network.client[3] 	downloads[3].real 	18001158
scalar abilene_nodelay_network.client[3] 	avg_time[3].real 	0
scalar abilene_nodelay_network.client[4] 	hdistance[4].real 	0.91552682029953
scalar abilene_nodelay_network.client[4] 	downloads[4].real 	18002353
scalar abilene_nodelay_network.client[4] 	avg_time[4].real 	0
scalar abilene_nodelay_network.client[5] 	hdistance[5].real 	1.0123707987938
scalar abilene_nodelay_network.client[5] 	downloads[5].real 	17996736
scalar abilene_nodelay_network.client[5] 	avg_time[5].real 	0
scalar abilene_nodelay_network.client[6] 	hdistance[6].real 	0.94935741512088
scalar abilene_nodelay_network.client[6] 	downloads[6].real 	17997778
scalar abilene_nodelay_network.client[6] 	avg_time[6].real 	0
scalar abilene_nodelay_network.client[7] 	hdistance[7].real 	0.80010408294144
scalar abilene_nodelay_network.client[7] 	downloads[7].real 	17999107
scalar abilene_nodelay_network.client[7] 	avg_time[7].real 	0
scalar abilene_nodelay_network.client[8] 	hdistance[8].real 	0.78673662696073
scalar abilene_nodelay_network.client[8] 	downloads[8].real 	17999162
scalar abilene_nodelay_network.client[8] 	avg_time[8].real 	0
scalar abilene_nodelay_network.client[9] 	hdistance[9].real 	0.8848765804087
scalar abilene_nodelay_network.client[9] 	downloads[9].real 	17996373
scalar abilene_nodelay_network.client[9] 	avg_time[9].real 	0
scalar abilene_nodelay_network.client[10] 	hdistance[10].real 	0.95041722463975
scalar abilene_nodelay_network.client[10] 	downloads[10].real 	18005648
scalar abilene_nodelay_network.client[10] 	avg_time[10].real 	0
