version 2
run General-4-20150723-17:35:58-29231
attr C 1e6
attr D lce
attr F spr
attr R partitionedn
attr a 1
attr brates 0.3_0.7_1.5_2.5_3.5
attr configname General
attr ctlg 1e8
attr datetime 20150723-17:35:58
attr experiment General
attr inifile omnetpp.ini
attr iterationvars "$net=abilene_nodelay, $rep=4, $lambda=100, $a=1, $ctlg=1e8, $brates=0.3_0.7_1.5_2.5_3.5, $F=spr, $ttl=1000, $D=lce, $R=partitionedn, $C=1e6, $window=60, $variance=0.05, $mytime=180000"
attr iterationvars2 "$net=abilene_nodelay, $rep=4, $lambda=100, $a=1, $ctlg=1e8, $brates=0.3_0.7_1.5_2.5_3.5, $F=spr, $ttl=1000, $D=lce, $R=partitionedn, $C=1e6, $window=60, $variance=0.05, $mytime=180000, $repetition=0"
attr lambda 100
attr measurement "$net=abilene_nodelay, $rep=4, $lambda=100, $a=1, $ctlg=1e8, $brates=0.3_0.7_1.5_2.5_3.5, $F=spr, $ttl=1000, $D=lce, $R=partitionedn, $C=1e6, $window=60, $variance=0.05, $mytime=180000"
attr mytime 180000
attr net abilene_nodelay
attr network networks.${net=abilene_nodelay}_network
attr processid 29231
attr rep 4
attr repetition 0
attr replication #0
attr resultdir results
attr runnumber 4
attr seedset 4
attr ttl 1000
attr variance 0.05
attr window 60

scalar . 	C 	1e6
scalar . 	a 	1
scalar . 	ctlg 	1e8
scalar . 	lambda 	100
scalar . 	mytime 	180000
scalar . 	rep 	4
scalar . 	ttl 	1000
scalar . 	variance 	0.05
scalar . 	window 	60
scalar abilene_nodelay_network.content_distribution 	repo-0 	2
scalar abilene_nodelay_network.content_distribution 	repo-1 	0
scalar abilene_nodelay_network.content_distribution 	repo-2 	10
scalar abilene_nodelay_network.content_distribution 	repo-3 	6
scalar abilene_nodelay_network.content_distribution 	repo-4 	4
scalar abilene_nodelay_network.content_distribution 	repo-5 	9
scalar abilene_nodelay_network.content_distribution 	repo-6 	3
scalar abilene_nodelay_network.content_distribution 	repo-7 	5
scalar abilene_nodelay_network.content_distribution 	repo-8 	1
scalar abilene_nodelay_network.content_distribution 	repo-9 	8
scalar abilene_nodelay_network.content_distribution 	repo-10 	7
scalar abilene_nodelay_network.content_distribution 	client-0 	3
scalar abilene_nodelay_network.content_distribution 	client-1 	5
scalar abilene_nodelay_network.content_distribution 	client-2 	8
scalar abilene_nodelay_network.content_distribution 	client-3 	10
scalar abilene_nodelay_network.content_distribution 	client-4 	1
scalar abilene_nodelay_network.content_distribution 	client-5 	7
scalar abilene_nodelay_network.content_distribution 	client-6 	6
scalar abilene_nodelay_network.content_distribution 	client-7 	0
scalar abilene_nodelay_network.content_distribution 	client-8 	4
scalar abilene_nodelay_network.content_distribution 	client-9 	9
scalar abilene_nodelay_network.content_distribution 	client-10 	2
scalar abilene_nodelay_network.content_distribution 	repo-0_card 	9084698
scalar abilene_nodelay_network.content_distribution 	repo-0_price 	0
scalar abilene_nodelay_network.content_distribution 	repo-1_card 	9088682
scalar abilene_nodelay_network.content_distribution 	repo-1_price 	0
scalar abilene_nodelay_network.content_distribution 	repo-2_card 	9091335
scalar abilene_nodelay_network.content_distribution 	repo-2_price 	0
scalar abilene_nodelay_network.content_distribution 	repo-3_card 	9090115
scalar abilene_nodelay_network.content_distribution 	repo-3_price 	0
scalar abilene_nodelay_network.content_distribution 	repo-4_card 	9089712
scalar abilene_nodelay_network.content_distribution 	repo-4_price 	0
scalar abilene_nodelay_network.content_distribution 	repo-5_card 	9088758
scalar abilene_nodelay_network.content_distribution 	repo-5_price 	0
scalar abilene_nodelay_network.content_distribution 	repo-6_card 	9097388
scalar abilene_nodelay_network.content_distribution 	repo-6_price 	0
scalar abilene_nodelay_network.content_distribution 	repo-7_card 	9089446
scalar abilene_nodelay_network.content_distribution 	repo-7_price 	0
scalar abilene_nodelay_network.content_distribution 	repo-8_card 	9088642
scalar abilene_nodelay_network.content_distribution 	repo-8_price 	0
scalar abilene_nodelay_network.content_distribution 	repo-9_card 	9096856
scalar abilene_nodelay_network.content_distribution 	repo-9_price 	0
scalar abilene_nodelay_network.content_distribution 	repo-10_card 	9094368
scalar abilene_nodelay_network.content_distribution 	repo-10_price 	0
scalar abilene_nodelay_network.statistics 	stabilization_time 	36060
scalar abilene_nodelay_network.statistics 	p_hit 	0.40704525817414
scalar abilene_nodelay_network.statistics 	interests 	31252040.090909
scalar abilene_nodelay_network.statistics 	data 	11974213.818182
scalar abilene_nodelay_network.statistics 	hdistance 	0.89136452151461
scalar abilene_nodelay_network.statistics 	avg_time 	0
scalar abilene_nodelay_network.statistics 	downloads 	197979739
scalar abilene_nodelay_network.statistics 	total_cost 	0
scalar abilene_nodelay_network.statistics 	total_replicas 	100000000
scalar abilene_nodelay_network.statistics 	"representations_downloaded 0.334037:0.0202385:0.0133077:0.0100574:0.622359:" 	0
scalar abilene_nodelay_network.statistics 	"slots_per_representation 100:233:500:833:1167:" 	0
scalar abilene_nodelay_network.statistics 	inner_hit 	0.63569430203158
scalar abilene_nodelay_network.statistics 	execution_time 	9388
scalar abilene_nodelay_network.node[0].core_layer 	interests[0] 	23285906
scalar abilene_nodelay_network.node[0].core_layer 	repo_load[0] 	7264167
scalar abilene_nodelay_network.node[0].core_layer 	data[0] 	5264194
scalar abilene_nodelay_network.node[0].core_layer 	slots_sent[face$o[1]->client[0]] 	12970227204
scalar abilene_nodelay_network.node[0].core_layer 	slots_sent[face$o[2]->node[1]] 	684617032
scalar abilene_nodelay_network.node[0].core_layer 	slots_sent[face$o[3]->node[10]] 	194764961
scalar abilene_nodelay_network.node[0].content_store 	p_hit[0] 	0.46197665660937
scalar abilene_nodelay_network.node[0].content_store 	hits[0] 	10757545
scalar abilene_nodelay_network.node[0].content_store 	misses[0] 	12528361
scalar abilene_nodelay_network.node[0].content_store 	decision_yes[0] 	5264194
scalar abilene_nodelay_network.node[0].content_store 	decision_no[0] 	7264167
scalar abilene_nodelay_network.node[0].content_store 	decision_ratio[0] 	0.42018217706211
scalar abilene_nodelay_network.node[0].content_store 	"representation_breakdown[0] 0x7fff33a76e68:0x7fff33a76e68:0x7fff33a76e68:0x7fff33a76e68:0x7fff33a76e68:" 	0
scalar abilene_nodelay_network.node[0].proactive_component 	hdistance[0].proactive_component 	1.9868375163078
scalar abilene_nodelay_network.node[0].proactive_component 	downloads[0].proactive_component 	851587
scalar abilene_nodelay_network.node[0].proactive_component 	avg_time[0].proactive_component 	0
scalar abilene_nodelay_network.node[1].core_layer 	interests[1] 	35362319
scalar abilene_nodelay_network.node[1].core_layer 	repo_load[1] 	6871403
scalar abilene_nodelay_network.node[1].core_layer 	data[1] 	15555106
scalar abilene_nodelay_network.node[1].core_layer 	slots_sent[face$o[1]->client[1]] 	13772383508
scalar abilene_nodelay_network.node[1].core_layer 	slots_sent[face$o[2]->node[0]] 	913785937
scalar abilene_nodelay_network.node[1].core_layer 	slots_sent[face$o[3]->node[10]] 	676046089
scalar abilene_nodelay_network.node[1].core_layer 	slots_sent[face$o[4]->node[2]] 	1685573865
scalar abilene_nodelay_network.node[1].content_store 	p_hit[1] 	0.36580774015415
scalar abilene_nodelay_network.node[1].content_store 	hits[1] 	12935810
scalar abilene_nodelay_network.node[1].content_store 	misses[1] 	22426509
scalar abilene_nodelay_network.node[1].content_store 	decision_yes[1] 	15555106
scalar abilene_nodelay_network.node[1].content_store 	decision_no[1] 	6871403
scalar abilene_nodelay_network.node[1].content_store 	decision_ratio[1] 	0.69360353856233
scalar abilene_nodelay_network.node[1].content_store 	"representation_breakdown[1] 0x7fff33a76e68:0x7fff33a76e68:0x7fff33a76e68:0x7fff33a76e68:0x7fff33a76e68:" 	0
scalar abilene_nodelay_network.node[1].proactive_component 	hdistance[1].proactive_component 	1.9897400087788
scalar abilene_nodelay_network.node[1].proactive_component 	downloads[1].proactive_component 	2043569
scalar abilene_nodelay_network.node[1].proactive_component 	avg_time[1].proactive_component 	0
scalar abilene_nodelay_network.node[2].core_layer 	interests[2] 	44138050
scalar abilene_nodelay_network.node[2].core_layer 	repo_load[2] 	6650509
scalar abilene_nodelay_network.node[2].core_layer 	data[2] 	23186395
scalar abilene_nodelay_network.node[2].core_layer 	slots_sent[face$o[1]->client[2]] 	14188102421
scalar abilene_nodelay_network.node[2].core_layer 	slots_sent[face$o[2]->node[1]] 	1889963297
scalar abilene_nodelay_network.node[2].core_layer 	slots_sent[face$o[3]->node[3]] 	2229500045
scalar abilene_nodelay_network.node[2].core_layer 	slots_sent[face$o[4]->node[8]] 	935343927
scalar abilene_nodelay_network.node[2].content_store 	p_hit[2] 	0.32400946575574
scalar abilene_nodelay_network.node[2].content_store 	hits[2] 	14301146
scalar abilene_nodelay_network.node[2].content_store 	misses[2] 	29836904
scalar abilene_nodelay_network.node[2].content_store 	decision_yes[2] 	23186395
scalar abilene_nodelay_network.node[2].content_store 	decision_no[2] 	6650509
scalar abilene_nodelay_network.node[2].content_store 	decision_ratio[2] 	0.77710458833128
scalar abilene_nodelay_network.node[2].content_store 	"representation_breakdown[2] 0x7fff33a76e68:0x7fff33a76e68:0x7fff33a76e68:0x7fff33a76e68:0x7fff33a76e68:" 	0
scalar abilene_nodelay_network.node[2].proactive_component 	hdistance[2].proactive_component 	2.0042166840377
scalar abilene_nodelay_network.node[2].proactive_component 	downloads[2].proactive_component 	2873585
scalar abilene_nodelay_network.node[2].proactive_component 	avg_time[2].proactive_component 	0
scalar abilene_nodelay_network.node[3].core_layer 	interests[3] 	42031160
scalar abilene_nodelay_network.node[3].core_layer 	repo_load[3] 	6600408
scalar abilene_nodelay_network.node[3].core_layer 	data[3] 	21293824
scalar abilene_nodelay_network.node[3].core_layer 	slots_sent[face$o[1]->client[3]] 	14193814520
scalar abilene_nodelay_network.node[3].core_layer 	slots_sent[face$o[2]->node[2]] 	2189795050
scalar abilene_nodelay_network.node[3].core_layer 	slots_sent[face$o[3]->node[4]] 	1451117614
scalar abilene_nodelay_network.node[3].core_layer 	slots_sent[face$o[4]->node[7]] 	1021001500
scalar abilene_nodelay_network.node[3].content_store 	p_hit[3] 	0.33634398860274
scalar abilene_nodelay_network.node[3].content_store 	hits[3] 	14136928
scalar abilene_nodelay_network.node[3].content_store 	misses[3] 	27894232
scalar abilene_nodelay_network.node[3].content_store 	decision_yes[3] 	21293824
scalar abilene_nodelay_network.node[3].content_store 	decision_no[3] 	6600408
scalar abilene_nodelay_network.node[3].content_store 	decision_ratio[3] 	0.76337731757591
scalar abilene_nodelay_network.node[3].content_store 	"representation_breakdown[3] 0x7fff33a76e68:0x7fff33a76e68:0x7fff33a76e68:0x7fff33a76e68:0x7fff33a76e68:" 	0
scalar abilene_nodelay_network.node[3].proactive_component 	hdistance[3].proactive_component 	1.9772020126248
scalar abilene_nodelay_network.node[3].proactive_component 	downloads[3].proactive_component 	2715459
scalar abilene_nodelay_network.node[3].proactive_component 	avg_time[3].proactive_component 	0
scalar abilene_nodelay_network.node[4].core_layer 	interests[4] 	28798389
scalar abilene_nodelay_network.node[4].core_layer 	repo_load[4] 	6341578
scalar abilene_nodelay_network.node[4].core_layer 	data[4] 	9927375
scalar abilene_nodelay_network.node[4].core_layer 	slots_sent[face$o[1]->client[4]] 	14180148226
scalar abilene_nodelay_network.node[4].core_layer 	slots_sent[face$o[2]->node[3]] 	1210886215
scalar abilene_nodelay_network.node[4].core_layer 	slots_sent[face$o[3]->node[5]] 	768803571
scalar abilene_nodelay_network.node[4].content_store 	p_hit[4] 	0.43507419807407
scalar abilene_nodelay_network.node[4].content_store 	hits[4] 	12529436
scalar abilene_nodelay_network.node[4].content_store 	misses[4] 	16268953
scalar abilene_nodelay_network.node[4].content_store 	decision_yes[4] 	9927375
scalar abilene_nodelay_network.node[4].content_store 	decision_no[4] 	6341578
scalar abilene_nodelay_network.node[4].content_store 	decision_ratio[4] 	0.61020368059334
scalar abilene_nodelay_network.node[4].content_store 	"representation_breakdown[4] 0x7fff33a76e68:0x7fff33a76e68:0x7fff33a76e68:0x7fff33a76e68:0x7fff33a76e68:" 	0
scalar abilene_nodelay_network.node[4].proactive_component 	hdistance[4].proactive_component 	1.9707227543763
scalar abilene_nodelay_network.node[4].proactive_component 	downloads[4].proactive_component 	1425339
scalar abilene_nodelay_network.node[4].proactive_component 	avg_time[4].proactive_component 	0
scalar abilene_nodelay_network.node[5].core_layer 	interests[5] 	24532678
scalar abilene_nodelay_network.node[5].core_layer 	repo_load[5] 	6052047
scalar abilene_nodelay_network.node[5].core_layer 	data[5] 	6294176
scalar abilene_nodelay_network.node[5].core_layer 	slots_sent[face$o[1]->client[5]] 	14255769306
scalar abilene_nodelay_network.node[5].core_layer 	slots_sent[face$o[2]->node[4]] 	649298339
scalar abilene_nodelay_network.node[5].core_layer 	slots_sent[face$o[3]->node[6]] 	470694572
scalar abilene_nodelay_network.node[5].content_store 	p_hit[5] 	0.49674377171542
scalar abilene_nodelay_network.node[5].content_store 	hits[5] 	12186455
scalar abilene_nodelay_network.node[5].content_store 	misses[5] 	12346223
scalar abilene_nodelay_network.node[5].content_store 	decision_yes[5] 	6294176
scalar abilene_nodelay_network.node[5].content_store 	decision_no[5] 	6052047
scalar abilene_nodelay_network.node[5].content_store 	decision_ratio[5] 	0.50980579242737
scalar abilene_nodelay_network.node[5].content_store 	"representation_breakdown[5] 0x7fff33a76e68:0x7fff33a76e68:0x7fff33a76e68:0x7fff33a76e68:0x7fff33a76e68:" 	0
scalar abilene_nodelay_network.node[5].proactive_component 	hdistance[5].proactive_component 	1.9704188566454
scalar abilene_nodelay_network.node[5].proactive_component 	downloads[5].proactive_component 	1049858
scalar abilene_nodelay_network.node[5].proactive_component 	avg_time[5].proactive_component 	0
scalar abilene_nodelay_network.node[6].core_layer 	interests[6] 	26619173
scalar abilene_nodelay_network.node[6].core_layer 	repo_load[6] 	6009367
scalar abilene_nodelay_network.node[6].core_layer 	data[6] 	8167975
scalar abilene_nodelay_network.node[6].core_layer 	slots_sent[face$o[1]->client[6]] 	14302092998
scalar abilene_nodelay_network.node[6].core_layer 	slots_sent[face$o[2]->node[5]] 	531741785
scalar abilene_nodelay_network.node[6].core_layer 	slots_sent[face$o[3]->node[7]] 	1001623477
scalar abilene_nodelay_network.node[6].content_store 	p_hit[6] 	0.46740110971892
scalar abilene_nodelay_network.node[6].content_store 	hits[6] 	12441831
scalar abilene_nodelay_network.node[6].content_store 	misses[6] 	14177342
scalar abilene_nodelay_network.node[6].content_store 	decision_yes[6] 	8167975
scalar abilene_nodelay_network.node[6].content_store 	decision_no[6] 	6009367
scalar abilene_nodelay_network.node[6].content_store 	decision_ratio[6] 	0.57612879762652
scalar abilene_nodelay_network.node[6].content_store 	"representation_breakdown[6] 0x7fff33a76e68:0x7fff33a76e68:0x7fff33a76e68:0x7fff33a76e68:0x7fff33a76e68:" 	0
scalar abilene_nodelay_network.node[6].proactive_component 	hdistance[6].proactive_component 	1.9632434830059
scalar abilene_nodelay_network.node[6].proactive_component 	downloads[6].proactive_component 	1253492
scalar abilene_nodelay_network.node[6].proactive_component 	avg_time[6].proactive_component 	0
scalar abilene_nodelay_network.node[7].core_layer 	interests[7] 	33644764
scalar abilene_nodelay_network.node[7].core_layer 	repo_load[7] 	6702057
scalar abilene_nodelay_network.node[7].core_layer 	data[7] 	13728811
scalar abilene_nodelay_network.node[7].core_layer 	slots_sent[face$o[1]->client[7]] 	14189896911
scalar abilene_nodelay_network.node[7].core_layer 	slots_sent[face$o[2]->node[3]] 	900417135
scalar abilene_nodelay_network.node[7].core_layer 	slots_sent[face$o[3]->node[6]] 	1220767692
scalar abilene_nodelay_network.node[7].core_layer 	slots_sent[face$o[4]->node[8]] 	827382534
scalar abilene_nodelay_network.node[7].content_store 	p_hit[7] 	0.39274747179086
scalar abilene_nodelay_network.node[7].content_store 	hits[7] 	13213896
scalar abilene_nodelay_network.node[7].content_store 	misses[7] 	20430868
scalar abilene_nodelay_network.node[7].content_store 	decision_yes[7] 	13728811
scalar abilene_nodelay_network.node[7].content_store 	decision_no[7] 	6702057
scalar abilene_nodelay_network.node[7].content_store 	decision_ratio[7] 	0.67196415737207
scalar abilene_nodelay_network.node[7].content_store 	"representation_breakdown[7] 0x7fff33a76e68:0x7fff33a76e68:0x7fff33a76e68:0x7fff33a76e68:0x7fff33a76e68:" 	0
scalar abilene_nodelay_network.node[7].proactive_component 	hdistance[7].proactive_component 	1.8941198959391
scalar abilene_nodelay_network.node[7].proactive_component 	downloads[7].proactive_component 	1982686
scalar abilene_nodelay_network.node[7].proactive_component 	avg_time[7].proactive_component 	0
scalar abilene_nodelay_network.node[8].core_layer 	interests[8] 	32632157
scalar abilene_nodelay_network.node[8].core_layer 	repo_load[8] 	6861720
scalar abilene_nodelay_network.node[8].core_layer 	data[8] 	12834438
scalar abilene_nodelay_network.node[8].core_layer 	slots_sent[face$o[1]->client[8]] 	14076596760
scalar abilene_nodelay_network.node[8].core_layer 	slots_sent[face$o[2]->node[2]] 	824963803
scalar abilene_nodelay_network.node[8].core_layer 	slots_sent[face$o[3]->node[7]] 	824934268
scalar abilene_nodelay_network.node[8].core_layer 	slots_sent[face$o[4]->node[9]] 	1091556920
scalar abilene_nodelay_network.node[8].content_store 	p_hit[8] 	0.39641875344005
scalar abilene_nodelay_network.node[8].content_store 	hits[8] 	12935999
scalar abilene_nodelay_network.node[8].content_store 	misses[8] 	19696158
scalar abilene_nodelay_network.node[8].content_store 	decision_yes[8] 	12834438
scalar abilene_nodelay_network.node[8].content_store 	decision_no[8] 	6861720
scalar abilene_nodelay_network.node[8].content_store 	decision_ratio[8] 	0.65162139743193
scalar abilene_nodelay_network.node[8].content_store 	"representation_breakdown[8] 0x7fff33a76e68:0x7fff33a76e68:0x7fff33a76e68:0x7fff33a76e68:0x7fff33a76e68:" 	0
scalar abilene_nodelay_network.node[8].proactive_component 	hdistance[8].proactive_component 	1.8879970361055
scalar abilene_nodelay_network.node[8].proactive_component 	downloads[8].proactive_component 	1854317
scalar abilene_nodelay_network.node[8].proactive_component 	avg_time[8].proactive_component 	0
scalar abilene_nodelay_network.node[9].core_layer 	interests[9] 	26691930
scalar abilene_nodelay_network.node[9].core_layer 	repo_load[9] 	6507991
scalar abilene_nodelay_network.node[9].core_layer 	data[9] 	8178621
scalar abilene_nodelay_network.node[9].core_layer 	slots_sent[face$o[1]->client[9]] 	13811974638
scalar abilene_nodelay_network.node[9].core_layer 	slots_sent[face$o[2]->node[10]] 	634196789
scalar abilene_nodelay_network.node[9].core_layer 	slots_sent[face$o[3]->node[8]] 	929326751
scalar abilene_nodelay_network.node[9].content_store 	p_hit[9] 	0.44977332100002
scalar abilene_nodelay_network.node[9].content_store 	hits[9] 	12005318
scalar abilene_nodelay_network.node[9].content_store 	misses[9] 	14686612
scalar abilene_nodelay_network.node[9].content_store 	decision_yes[9] 	8178621
scalar abilene_nodelay_network.node[9].content_store 	decision_no[9] 	6507991
scalar abilene_nodelay_network.node[9].content_store 	decision_ratio[9] 	0.55687594933399
scalar abilene_nodelay_network.node[9].content_store 	"representation_breakdown[9] 0x7fff33a76e68:0x7fff33a76e68:0x7fff33a76e68:0x7fff33a76e68:0x7fff33a76e68:" 	0
scalar abilene_nodelay_network.node[9].proactive_component 	hdistance[9].proactive_component 	1.9320240373102
scalar abilene_nodelay_network.node[9].proactive_component 	downloads[9].proactive_component 	1248559
scalar abilene_nodelay_network.node[9].proactive_component 	avg_time[9].proactive_component 	0
scalar abilene_nodelay_network.node[10].core_layer 	interests[10] 	26035915
scalar abilene_nodelay_network.node[10].core_layer 	repo_load[10] 	6263900
scalar abilene_nodelay_network.node[10].core_layer 	data[10] 	7285437
scalar abilene_nodelay_network.node[10].core_layer 	slots_sent[face$o[1]->client[10]] 	14373200198
scalar abilene_nodelay_network.node[10].core_layer 	slots_sent[face$o[2]->node[0]] 	214311292
scalar abilene_nodelay_network.node[10].core_layer 	slots_sent[face$o[3]->node[1]] 	588647842
scalar abilene_nodelay_network.node[10].core_layer 	slots_sent[face$o[4]->node[9]] 	577191395
scalar abilene_nodelay_network.node[10].content_store 	p_hit[10] 	0.47959051948049
scalar abilene_nodelay_network.node[10].content_store 	hits[10] 	12486578
scalar abilene_nodelay_network.node[10].content_store 	misses[10] 	13549337
scalar abilene_nodelay_network.node[10].content_store 	decision_yes[10] 	7285437
scalar abilene_nodelay_network.node[10].content_store 	decision_no[10] 	6263900
scalar abilene_nodelay_network.node[10].content_store 	decision_ratio[10] 	0.53769693675787
scalar abilene_nodelay_network.node[10].content_store 	"representation_breakdown[10] 0x7fff33a76e68:0x7fff33a76e68:0x7fff33a76e68:0x7fff33a76e68:0x7fff33a76e68:" 	0
scalar abilene_nodelay_network.node[10].proactive_component 	hdistance[10].proactive_component 	1.9227430900977
scalar abilene_nodelay_network.node[10].proactive_component 	downloads[10].proactive_component 	1231385
scalar abilene_nodelay_network.node[10].proactive_component 	avg_time[10].proactive_component 	0
scalar abilene_nodelay_network.client[0] 	hdistance[0].real 	1.0731051294205
scalar abilene_nodelay_network.client[0] 	downloads[0].real 	17997588
scalar abilene_nodelay_network.client[0] 	avg_time[0].real 	0
scalar abilene_nodelay_network.client[1] 	hdistance[1].real 	0.87594944980463
scalar abilene_nodelay_network.client[1] 	downloads[1].real 	17996607
scalar abilene_nodelay_network.client[1] 	avg_time[1].real 	0
scalar abilene_nodelay_network.client[2] 	hdistance[2].real 	0.76792588311477
scalar abilene_nodelay_network.client[2] 	downloads[2].real 	18001512
scalar abilene_nodelay_network.client[2] 	avg_time[2].real 	0
scalar abilene_nodelay_network.client[3] 	hdistance[3].real 	0.7891750168764
scalar abilene_nodelay_network.client[3] 	downloads[3].real 	17998550
scalar abilene_nodelay_network.client[3] 	avg_time[3].real 	0
scalar abilene_nodelay_network.client[4] 	hdistance[4].real 	0.92554298536549
scalar abilene_nodelay_network.client[4] 	downloads[4].real 	17995927
scalar abilene_nodelay_network.client[4] 	avg_time[4].real 	0
scalar abilene_nodelay_network.client[5] 	hdistance[5].real 	1.0123808827485
scalar abilene_nodelay_network.client[5] 	downloads[5].real 	17999282
scalar abilene_nodelay_network.client[5] 	avg_time[5].real 	0
scalar abilene_nodelay_network.client[6] 	hdistance[6].real 	0.94362385952965
scalar abilene_nodelay_network.client[6] 	downloads[6].real 	17996851
scalar abilene_nodelay_network.client[6] 	avg_time[6].real 	0
scalar abilene_nodelay_network.client[7] 	hdistance[7].real 	0.80594581157674
scalar abilene_nodelay_network.client[7] 	downloads[7].real 	17998014
scalar abilene_nodelay_network.client[7] 	avg_time[7].real 	0
scalar abilene_nodelay_network.client[8] 	hdistance[8].real 	0.7899811631688
scalar abilene_nodelay_network.client[8] 	downloads[8].real 	18003028
scalar abilene_nodelay_network.client[8] 	avg_time[8].real 	0
scalar abilene_nodelay_network.client[9] 	hdistance[9].real 	0.90860079841617
scalar abilene_nodelay_network.client[9] 	downloads[9].real 	18000387
scalar abilene_nodelay_network.client[9] 	avg_time[9].real 	0
scalar abilene_nodelay_network.client[10] 	hdistance[10].real 	0.91277875663911
scalar abilene_nodelay_network.client[10] 	downloads[10].real 	17991993
scalar abilene_nodelay_network.client[10] 	avg_time[10].real 	0
