version 2
run General-861-20140511-15:41:30-15435
attr D costprobprodcorr0.01
attr F nrr
attr R lru
attr a 1
attr configname General
attr csize 1e3
attr ctlg 1e5
attr datetime 20140511-15:41:30
attr experiment General
attr inifile omnetpp.ini
attr iterationvars "$net=one_cache_scenario_3_links, $rep=15, $priceratiovalue=2, $weights=0.333_0.333_0.334, $a=1, $ctlg=1e5, $F=nrr, $ttl=1000, $D=costprobprodcorr0.01, $xi=1.1, $R=lru, $csize=1e3"
attr iterationvars2 "$net=one_cache_scenario_3_links, $rep=15, $priceratiovalue=2, $weights=0.333_0.333_0.334, $a=1, $ctlg=1e5, $F=nrr, $ttl=1000, $D=costprobprodcorr0.01, $xi=1.1, $R=lru, $csize=1e3, $repetition=0"
attr measurement "$net=one_cache_scenario_3_links, $rep=15, $priceratiovalue=2, $weights=0.333_0.333_0.334, $a=1, $ctlg=1e5, $F=nrr, $ttl=1000, $D=costprobprodcorr0.01, $xi=1.1, $R=lru, $csize=1e3"
attr net one_cache_scenario_3_links
attr network networks.${net=one_cache_scenario_3_links}_network
attr priceratiovalue 2
attr processid 15435
attr rep 15
attr repetition 0
attr replication #0
attr resultdir results
attr runnumber 861
attr seedset 15
attr ttl 1000
attr weights 0.333_0.333_0.334
attr xi 1.1

scalar . 	a 	1
scalar . 	csize 	1e3
scalar . 	ctlg 	1e5
scalar . 	priceratiovalue 	2
scalar . 	rep 	15
scalar . 	ttl 	1000
scalar . 	xi 	1.1
scalar one_cache_scenario_3_links_network.content_distribution 	repo-0 	4
scalar one_cache_scenario_3_links_network.content_distribution 	repo-1 	5
scalar one_cache_scenario_3_links_network.content_distribution 	repo-2 	6
scalar one_cache_scenario_3_links_network.content_distribution 	client-0 	0
scalar one_cache_scenario_3_links_network.content_distribution 	repo-0_card 	33353
scalar one_cache_scenario_3_links_network.content_distribution 	repo-1_card 	33285
scalar one_cache_scenario_3_links_network.content_distribution 	repo-2_card 	33362
scalar one_cache_scenario_3_links_network.statistics 	p_hit 	0.16216785030811
scalar one_cache_scenario_3_links_network.statistics 	interests 	58375.142857143
scalar one_cache_scenario_3_links_network.statistics 	data 	32605.714285714
scalar one_cache_scenario_3_links_network.statistics 	hdistance 	1.2652866630448
scalar one_cache_scenario_3_links_network.statistics 	avg_time 	0
scalar one_cache_scenario_3_links_network.statistics 	downloads 	180386
scalar one_cache_scenario_3_links_network.statistics 	total_cost 	75454
scalar one_cache_scenario_3_links_network.statistics 	total_replicas 	100000
scalar one_cache_scenario_3_links_network.statistics 	interests_sent 	180386
scalar one_cache_scenario_3_links_network.node[0].core_layer 	interests[0] 	180386
scalar one_cache_scenario_3_links_network.node[0].core_layer 	data[0] 	114120
scalar one_cache_scenario_3_links_network.node[0].core_layer 	repo_int[0] 	114120
scalar one_cache_scenario_3_links_network.node[0].content_store 	p_hit[0] 	0.3673566684776
scalar one_cache_scenario_3_links_network.node[0].content_store 	hits[0] 	66266
scalar one_cache_scenario_3_links_network.node[0].content_store 	misses[0] 	114120
scalar one_cache_scenario_3_links_network.node[0].content_store 	decision_yes[0] 	771
scalar one_cache_scenario_3_links_network.node[0].content_store 	decision_no[0] 	113349
scalar one_cache_scenario_3_links_network.node[0].content_store 	decision_ratio[0] 	0.0067560462670873
scalar one_cache_scenario_3_links_network.node[0].content_store 	correction_factor[0] 	0.0095333912813965
scalar one_cache_scenario_3_links_network.node[0].content_store 	xi[0] 	1.1
scalar one_cache_scenario_3_links_network.node[1].core_layer 	interests[1] 	62981
scalar one_cache_scenario_3_links_network.node[1].core_layer 	data[1] 	62981
scalar one_cache_scenario_3_links_network.node[1].content_store 	p_hit[1] 	0
scalar one_cache_scenario_3_links_network.node[1].content_store 	hits[1] 	0
scalar one_cache_scenario_3_links_network.node[1].content_store 	misses[1] 	62981
scalar one_cache_scenario_3_links_network.node[1].content_store 	decision_yes[1] 	0
scalar one_cache_scenario_3_links_network.node[1].content_store 	decision_no[1] 	62981
scalar one_cache_scenario_3_links_network.node[1].content_store 	decision_ratio[1] 	0
scalar one_cache_scenario_3_links_network.node[2].core_layer 	interests[2] 	26824
scalar one_cache_scenario_3_links_network.node[2].core_layer 	data[2] 	26824
scalar one_cache_scenario_3_links_network.node[2].content_store 	p_hit[2] 	0
scalar one_cache_scenario_3_links_network.node[2].content_store 	hits[2] 	0
scalar one_cache_scenario_3_links_network.node[2].content_store 	misses[2] 	26824
scalar one_cache_scenario_3_links_network.node[2].content_store 	decision_yes[2] 	0
scalar one_cache_scenario_3_links_network.node[2].content_store 	decision_no[2] 	26824
scalar one_cache_scenario_3_links_network.node[2].content_store 	decision_ratio[2] 	0
scalar one_cache_scenario_3_links_network.node[3].core_layer 	interests[3] 	24315
scalar one_cache_scenario_3_links_network.node[3].core_layer 	data[3] 	24315
scalar one_cache_scenario_3_links_network.node[3].content_store 	p_hit[3] 	0
scalar one_cache_scenario_3_links_network.node[3].content_store 	hits[3] 	0
scalar one_cache_scenario_3_links_network.node[3].content_store 	misses[3] 	24315
scalar one_cache_scenario_3_links_network.node[3].content_store 	decision_yes[3] 	0
scalar one_cache_scenario_3_links_network.node[3].content_store 	decision_no[3] 	24315
scalar one_cache_scenario_3_links_network.node[3].content_store 	decision_ratio[3] 	0
scalar one_cache_scenario_3_links_network.node[4].core_layer 	interests[4] 	62981
scalar one_cache_scenario_3_links_network.node[4].core_layer 	repo_load[4] 	62981
scalar one_cache_scenario_3_links_network.node[4].core_layer 	data[4] 	0
scalar one_cache_scenario_3_links_network.node[4].content_store 	p_hit[4] 	0
scalar one_cache_scenario_3_links_network.node[4].content_store 	hits[4] 	0
scalar one_cache_scenario_3_links_network.node[4].content_store 	misses[4] 	62981
scalar one_cache_scenario_3_links_network.node[4].content_store 	decision_yes[4] 	0
scalar one_cache_scenario_3_links_network.node[4].content_store 	decision_no[4] 	62981
scalar one_cache_scenario_3_links_network.node[4].content_store 	decision_ratio[4] 	0
scalar one_cache_scenario_3_links_network.node[5].core_layer 	interests[5] 	26824
scalar one_cache_scenario_3_links_network.node[5].core_layer 	repo_load[5] 	26824
scalar one_cache_scenario_3_links_network.node[5].core_layer 	data[5] 	0
scalar one_cache_scenario_3_links_network.node[5].content_store 	p_hit[5] 	0
scalar one_cache_scenario_3_links_network.node[5].content_store 	hits[5] 	0
scalar one_cache_scenario_3_links_network.node[5].content_store 	misses[5] 	26824
scalar one_cache_scenario_3_links_network.node[5].content_store 	decision_yes[5] 	0
scalar one_cache_scenario_3_links_network.node[5].content_store 	decision_no[5] 	26824
scalar one_cache_scenario_3_links_network.node[5].content_store 	decision_ratio[5] 	0
scalar one_cache_scenario_3_links_network.node[6].core_layer 	interests[6] 	24315
scalar one_cache_scenario_3_links_network.node[6].core_layer 	repo_load[6] 	24315
scalar one_cache_scenario_3_links_network.node[6].core_layer 	data[6] 	0
scalar one_cache_scenario_3_links_network.node[6].content_store 	p_hit[6] 	0
scalar one_cache_scenario_3_links_network.node[6].content_store 	hits[6] 	0
scalar one_cache_scenario_3_links_network.node[6].content_store 	misses[6] 	24315
scalar one_cache_scenario_3_links_network.node[6].content_store 	decision_yes[6] 	0
scalar one_cache_scenario_3_links_network.node[6].content_store 	decision_no[6] 	24315
scalar one_cache_scenario_3_links_network.node[6].content_store 	decision_ratio[6] 	0
scalar one_cache_scenario_3_links_network.client[0] 	hdistance[0] 	1.2652866630448
scalar one_cache_scenario_3_links_network.client[0] 	downloads[0] 	180386
scalar one_cache_scenario_3_links_network.client[0] 	avg_time[0] 	0
scalar one_cache_scenario_3_links_network.client[0] 	interests_sent[0] 	180386
