version 2
run General-15-20141007-11:11:38-28129
attr D fix0.5
attr F nrr
attr R lru
attr a 1
attr configname General
attr csize 1e3
attr ctlg 1e5
attr datetime 20141007-11:11:38
attr experiment General
attr inifile omnetpp.ini
attr iterationvars "$net=abilene_cost, $rep=5, $priceratiovalue=10, $weights=0.333_0.333_0.334, $lambda=100, $a=1, $ctlg=1e5, $F=nrr, $ttl=10, $D=fix0.5, $xi=1, $R=lru, $csize=1e3, $pricebits=0, $window=60, $variance=0.05, $mytime=1800"
attr iterationvars2 "$net=abilene_cost, $rep=5, $priceratiovalue=10, $weights=0.333_0.333_0.334, $lambda=100, $a=1, $ctlg=1e5, $F=nrr, $ttl=10, $D=fix0.5, $xi=1, $R=lru, $csize=1e3, $pricebits=0, $window=60, $variance=0.05, $mytime=1800, $repetition=0"
attr lambda 100
attr measurement "$net=abilene_cost, $rep=5, $priceratiovalue=10, $weights=0.333_0.333_0.334, $lambda=100, $a=1, $ctlg=1e5, $F=nrr, $ttl=10, $D=fix0.5, $xi=1, $R=lru, $csize=1e3, $pricebits=0, $window=60, $variance=0.05, $mytime=1800"
attr mytime 1800
attr net abilene_cost
attr network networks.${net=abilene_cost,geant_cost}_network
attr pricebits 0
attr priceratiovalue 10
attr processid 28129
attr rep 5
attr repetition 0
attr replication #0
attr resultdir results
attr runnumber 15
attr seedset 5
attr ttl 10
attr variance 0.05
attr weights 0.333_0.333_0.334
attr window 60
attr xi 1

scalar . 	a 	1
scalar . 	csize 	1e3
scalar . 	ctlg 	1e5
scalar . 	lambda 	100
scalar . 	mytime 	1800
scalar . 	pricebits 	0
scalar . 	priceratiovalue 	10
scalar . 	rep 	5
scalar . 	ttl 	10
scalar . 	variance 	0.05
scalar . 	window 	60
scalar . 	xi 	1
scalar abilene_cost_network.content_distribution 	repo-0 	9
scalar abilene_cost_network.content_distribution 	repo-1 	5
scalar abilene_cost_network.content_distribution 	repo-2 	1
scalar abilene_cost_network.content_distribution 	client-0 	4
scalar abilene_cost_network.content_distribution 	client-1 	9
scalar abilene_cost_network.content_distribution 	client-2 	0
scalar abilene_cost_network.content_distribution 	repo-0_card 	33098
scalar abilene_cost_network.content_distribution 	repo-0_price 	1
scalar abilene_cost_network.content_distribution 	repo-1_card 	33495
scalar abilene_cost_network.content_distribution 	repo-1_price 	10
scalar abilene_cost_network.content_distribution 	repo-2_card 	33407
scalar abilene_cost_network.content_distribution 	repo-2_price 	0
scalar abilene_cost_network.statistics 	repo_popularity[0] 	0.31037770261398
scalar abilene_cost_network.statistics 	repo_popularity[1] 	0.29913869324176
scalar abilene_cost_network.statistics 	repo_popularity[2] 	0.39048360414427
scalar abilene_cost_network.statistics 	stabilization_time 	68.5
scalar abilene_cost_network.statistics 	p_hit 	0.15689051965688
scalar abilene_cost_network.statistics 	interests 	128934.72727273
scalar abilene_cost_network.statistics 	data 	79830
scalar abilene_cost_network.statistics 	hdistance 	2.2139945322385
scalar abilene_cost_network.statistics 	avg_time 	0.010698330575
scalar abilene_cost_network.statistics 	downloads 	539795
scalar abilene_cost_network.statistics 	total_cost 	1070767
scalar abilene_cost_network.statistics 	total_replicas 	100000
scalar abilene_cost_network.statistics 	inner_hit 	0.41223056901231
scalar abilene_cost_network.node[0].core_layer 	interests[0] 	184683
scalar abilene_cost_network.node[0].core_layer 	data[0] 	126395
scalar abilene_cost_network.node[0].core_layer 	repo_int[0] 	317275
scalar abilene_cost_network.node[0].content_store 	p_hit[0] 	0.31489633588365
scalar abilene_cost_network.node[0].content_store 	hits[0] 	58156
scalar abilene_cost_network.node[0].content_store 	misses[0] 	126527
scalar abilene_cost_network.node[0].content_store 	decision_yes[0] 	63449
scalar abilene_cost_network.node[0].content_store 	decision_no[0] 	62946
scalar abilene_cost_network.node[0].content_store 	decision_ratio[0] 	0.50198979390008
scalar abilene_cost_network.node[1].core_layer 	interests[1] 	160968
scalar abilene_cost_network.node[1].core_layer 	repo_load[1] 	109347
scalar abilene_cost_network.node[1].core_layer 	data[1] 	43728
scalar abilene_cost_network.node[1].content_store 	p_hit[1] 	0.049034590726107
scalar abilene_cost_network.node[1].content_store 	hits[1] 	7893
scalar abilene_cost_network.node[1].content_store 	misses[1] 	153075
scalar abilene_cost_network.node[1].content_store 	decision_yes[1] 	76283
scalar abilene_cost_network.node[1].content_store 	decision_no[1] 	76792
scalar abilene_cost_network.node[1].content_store 	decision_ratio[1] 	0.4983374162992
scalar abilene_cost_network.node[2].core_layer 	interests[2] 	127043
scalar abilene_cost_network.node[2].core_layer 	data[2] 	120593
scalar abilene_cost_network.node[2].content_store 	p_hit[2] 	0.050762340309974
scalar abilene_cost_network.node[2].content_store 	hits[2] 	6449
scalar abilene_cost_network.node[2].content_store 	misses[2] 	120594
scalar abilene_cost_network.node[2].content_store 	decision_yes[2] 	60068
scalar abilene_cost_network.node[2].content_store 	decision_no[2] 	60515
scalar abilene_cost_network.node[2].content_store 	decision_ratio[2] 	0.49814650489704
scalar abilene_cost_network.node[3].core_layer 	interests[3] 	129593
scalar abilene_cost_network.node[3].core_layer 	data[3] 	122408
scalar abilene_cost_network.node[3].content_store 	p_hit[3] 	0.055442809411002
scalar abilene_cost_network.node[3].content_store 	hits[3] 	7185
scalar abilene_cost_network.node[3].content_store 	misses[3] 	122408
scalar abilene_cost_network.node[3].content_store 	decision_yes[3] 	61378
scalar abilene_cost_network.node[3].content_store 	decision_no[3] 	61029
scalar abilene_cost_network.node[3].content_store 	decision_ratio[3] 	0.50142557206696
scalar abilene_cost_network.node[4].core_layer 	interests[4] 	212937
scalar abilene_cost_network.node[4].core_layer 	data[4] 	160721
scalar abilene_cost_network.node[4].content_store 	p_hit[4] 	0.24458407885901
scalar abilene_cost_network.node[4].content_store 	hits[4] 	52081
scalar abilene_cost_network.node[4].content_store 	misses[4] 	160856
scalar abilene_cost_network.node[4].content_store 	decision_yes[4] 	80502
scalar abilene_cost_network.node[4].content_store 	decision_no[4] 	80218
scalar abilene_cost_network.node[4].content_store 	decision_ratio[4] 	0.50088352414136
scalar abilene_cost_network.node[5].core_layer 	interests[5] 	99973
scalar abilene_cost_network.node[5].core_layer 	repo_load[5] 	95871
scalar abilene_cost_network.node[5].core_layer 	data[5] 	0
scalar abilene_cost_network.node[5].content_store 	p_hit[5] 	0.041031078391166
scalar abilene_cost_network.node[5].content_store 	hits[5] 	4102
scalar abilene_cost_network.node[5].content_store 	misses[5] 	95871
scalar abilene_cost_network.node[5].content_store 	decision_yes[5] 	47806
scalar abilene_cost_network.node[5].content_store 	decision_no[5] 	48065
scalar abilene_cost_network.node[5].content_store 	decision_ratio[5] 	0.49864922656486
scalar abilene_cost_network.node[6].core_layer 	interests[6] 	33008
scalar abilene_cost_network.node[6].core_layer 	data[6] 	31594
scalar abilene_cost_network.node[6].content_store 	p_hit[6] 	0.042838099854581
scalar abilene_cost_network.node[6].content_store 	hits[6] 	1414
scalar abilene_cost_network.node[6].content_store 	misses[6] 	31594
scalar abilene_cost_network.node[6].content_store 	decision_yes[6] 	15851
scalar abilene_cost_network.node[6].content_store 	decision_no[6] 	15743
scalar abilene_cost_network.node[6].content_store 	decision_ratio[6] 	0.50170918528835
scalar abilene_cost_network.node[7].core_layer 	interests[7] 	41097
scalar abilene_cost_network.node[7].core_layer 	data[7] 	33008
scalar abilene_cost_network.node[7].content_store 	p_hit[7] 	0.19682701900382
scalar abilene_cost_network.node[7].content_store 	hits[7] 	8089
scalar abilene_cost_network.node[7].content_store 	misses[7] 	33008
scalar abilene_cost_network.node[7].content_store 	decision_yes[7] 	16516
scalar abilene_cost_network.node[7].content_store 	decision_no[7] 	16491
scalar abilene_cost_network.node[7].content_store 	decision_ratio[7] 	0.50037870754688
scalar abilene_cost_network.node[8].core_layer 	interests[8] 	82397
scalar abilene_cost_network.node[8].core_layer 	data[8] 	74638
scalar abilene_cost_network.node[8].content_store 	p_hit[8] 	0.094153913370632
scalar abilene_cost_network.node[8].content_store 	hits[8] 	7758
scalar abilene_cost_network.node[8].content_store 	misses[8] 	74639
scalar abilene_cost_network.node[8].content_store 	decision_yes[8] 	37167
scalar abilene_cost_network.node[8].content_store 	decision_no[8] 	37471
scalar abilene_cost_network.node[8].content_store 	decision_ratio[8] 	0.49796350384523
scalar abilene_cost_network.node[9].core_layer 	interests[9] 	254675
scalar abilene_cost_network.node[9].core_layer 	repo_load[9] 	112057
scalar abilene_cost_network.node[9].core_layer 	data[9] 	87114
scalar abilene_cost_network.node[9].content_store 	p_hit[9] 	0.21757534112104
scalar abilene_cost_network.node[9].content_store 	hits[9] 	55411
scalar abilene_cost_network.node[9].content_store 	misses[9] 	199264
scalar abilene_cost_network.node[9].content_store 	decision_yes[9] 	99772
scalar abilene_cost_network.node[9].content_store 	decision_no[9] 	99399
scalar abilene_cost_network.node[9].content_store 	decision_ratio[9] 	0.50093638130049
scalar abilene_cost_network.node[10].core_layer 	interests[10] 	91908
scalar abilene_cost_network.node[10].core_layer 	data[10] 	77931
scalar abilene_cost_network.node[10].content_store 	p_hit[10] 	0.15207598903251
scalar abilene_cost_network.node[10].content_store 	hits[10] 	13977
scalar abilene_cost_network.node[10].content_store 	misses[10] 	77931
scalar abilene_cost_network.node[10].content_store 	decision_yes[10] 	38905
scalar abilene_cost_network.node[10].content_store 	decision_no[10] 	39025
scalar abilene_cost_network.node[10].content_store 	decision_ratio[10] 	0.49923007827538
scalar abilene_cost_network.client[0] 	hdistance[0] 	2.2984886301378
scalar abilene_cost_network.client[0] 	downloads[0] 	180697
scalar abilene_cost_network.client[0] 	avg_time[0] 	0.011729076921
scalar abilene_cost_network.client[4] 	hdistance[4] 	2.459586272842
scalar abilene_cost_network.client[4] 	downloads[4] 	179877
scalar abilene_cost_network.client[4] 	avg_time[4] 	0.01086790091
scalar abilene_cost_network.client[9] 	hdistance[9] 	1.8839086937357
scalar abilene_cost_network.client[9] 	downloads[9] 	179221
scalar abilene_cost_network.client[9] 	avg_time[9] 	0.009498013895
