version 2
run General-17-20141007-11:27:35-517
attr D fix0.05
attr F nrr
attr R lru
attr a 1
attr configname General
attr csize 1e3
attr ctlg 1e5
attr datetime 20141007-11:27:35
attr experiment General
attr inifile omnetpp.ini
attr iterationvars "$net=abilene_cost, $rep=4, $priceratiovalue=10, $weights=0.333_0.333_0.334, $lambda=100, $a=1, $ctlg=1e5, $F=nrr, $ttl=10, $D=fix0.05, $xi=1, $R=lru, $csize=1e3, $pricebits=0, $window=60, $variance=0.05, $mytime=1800"
attr iterationvars2 "$net=abilene_cost, $rep=4, $priceratiovalue=10, $weights=0.333_0.333_0.334, $lambda=100, $a=1, $ctlg=1e5, $F=nrr, $ttl=10, $D=fix0.05, $xi=1, $R=lru, $csize=1e3, $pricebits=0, $window=60, $variance=0.05, $mytime=1800, $repetition=0"
attr lambda 100
attr measurement "$net=abilene_cost, $rep=4, $priceratiovalue=10, $weights=0.333_0.333_0.334, $lambda=100, $a=1, $ctlg=1e5, $F=nrr, $ttl=10, $D=fix0.05, $xi=1, $R=lru, $csize=1e3, $pricebits=0, $window=60, $variance=0.05, $mytime=1800"
attr mytime 1800
attr net abilene_cost
attr network networks.${net=abilene_cost,geant_cost}_network
attr pricebits 0
attr priceratiovalue 10
attr processid 517
attr rep 4
attr repetition 0
attr replication #0
attr resultdir results
attr runnumber 17
attr seedset 4
attr ttl 10
attr variance 0.05
attr weights 0.333_0.333_0.334
attr window 60
attr xi 1

scalar . 	a 	1
scalar . 	csize 	1e3
scalar . 	ctlg 	1e5
scalar . 	lambda 	100
scalar . 	mytime 	1800
scalar . 	pricebits 	0
scalar . 	priceratiovalue 	10
scalar . 	rep 	4
scalar . 	ttl 	10
scalar . 	variance 	0.05
scalar . 	window 	60
scalar . 	xi 	1
scalar abilene_cost_network.content_distribution 	repo-0 	2
scalar abilene_cost_network.content_distribution 	repo-1 	0
scalar abilene_cost_network.content_distribution 	repo-2 	10
scalar abilene_cost_network.content_distribution 	client-0 	6
scalar abilene_cost_network.content_distribution 	client-1 	2
scalar abilene_cost_network.content_distribution 	client-2 	4
scalar abilene_cost_network.content_distribution 	repo-0_card 	33274
scalar abilene_cost_network.content_distribution 	repo-0_price 	0
scalar abilene_cost_network.content_distribution 	repo-1_card 	33153
scalar abilene_cost_network.content_distribution 	repo-1_price 	1
scalar abilene_cost_network.content_distribution 	repo-2_card 	33573
scalar abilene_cost_network.content_distribution 	repo-2_price 	10
scalar abilene_cost_network.statistics 	repo_popularity[0] 	0.33945880017902
scalar abilene_cost_network.statistics 	repo_popularity[1] 	0.30988277584688
scalar abilene_cost_network.statistics 	repo_popularity[2] 	0.35065842397411
scalar abilene_cost_network.statistics 	stabilization_time 	778.7
scalar abilene_cost_network.statistics 	p_hit 	0.19207554104293
scalar abilene_cost_network.statistics 	interests 	128623.63636364
scalar abilene_cost_network.statistics 	data 	79533.818181818
scalar abilene_cost_network.statistics 	hdistance 	2.1167281874297
scalar abilene_cost_network.statistics 	avg_time 	0.009868033505
scalar abilene_cost_network.statistics 	downloads 	539910
scalar abilene_cost_network.statistics 	total_cost 	873490
scalar abilene_cost_network.statistics 	total_replicas 	100000
scalar abilene_cost_network.statistics 	inner_hit 	0.50341723620603
scalar abilene_cost_network.node[0].core_layer 	interests[0] 	86337
scalar abilene_cost_network.node[0].core_layer 	repo_load[0] 	83090
scalar abilene_cost_network.node[0].core_layer 	data[0] 	0
scalar abilene_cost_network.node[0].core_layer 	repo_int[0] 	268110
scalar abilene_cost_network.node[0].content_store 	p_hit[0] 	0.037608441340329
scalar abilene_cost_network.node[0].content_store 	hits[0] 	3247
scalar abilene_cost_network.node[0].content_store 	misses[0] 	83090
scalar abilene_cost_network.node[0].content_store 	decision_yes[0] 	4158
scalar abilene_cost_network.node[0].content_store 	decision_no[0] 	78932
scalar abilene_cost_network.node[0].content_store 	decision_ratio[0] 	0.050042122999158
scalar abilene_cost_network.node[1].core_layer 	interests[1] 	144529
scalar abilene_cost_network.node[1].core_layer 	data[1] 	140781
scalar abilene_cost_network.node[1].content_store 	p_hit[1] 	0.025925592787607
scalar abilene_cost_network.node[1].content_store 	hits[1] 	3747
scalar abilene_cost_network.node[1].content_store 	misses[1] 	140782
scalar abilene_cost_network.node[1].content_store 	decision_yes[1] 	7079
scalar abilene_cost_network.node[1].content_store 	decision_no[1] 	133702
scalar abilene_cost_network.node[1].content_store 	decision_ratio[1] 	0.050283774088833
scalar abilene_cost_network.node[2].core_layer 	interests[2] 	336796
scalar abilene_cost_network.node[2].core_layer 	repo_load[2] 	105980
scalar abilene_cost_network.node[2].core_layer 	data[2] 	171015
scalar abilene_cost_network.node[2].content_store 	p_hit[2] 	0.17739521847053
scalar abilene_cost_network.node[2].content_store 	hits[2] 	59746
scalar abilene_cost_network.node[2].content_store 	misses[2] 	277050
scalar abilene_cost_network.node[2].content_store 	decision_yes[2] 	14007
scalar abilene_cost_network.node[2].content_store 	decision_no[2] 	262987
scalar abilene_cost_network.node[2].content_store 	decision_ratio[2] 	0.050567882336802
scalar abilene_cost_network.node[3].core_layer 	interests[3] 	184400
scalar abilene_cost_network.node[3].core_layer 	data[3] 	171192
scalar abilene_cost_network.node[3].content_store 	p_hit[3] 	0.071578091106291
scalar abilene_cost_network.node[3].content_store 	hits[3] 	13199
scalar abilene_cost_network.node[3].content_store 	misses[3] 	171201
scalar abilene_cost_network.node[3].content_store 	decision_yes[3] 	8482
scalar abilene_cost_network.node[3].content_store 	decision_no[3] 	162710
scalar abilene_cost_network.node[3].content_store 	decision_ratio[3] 	0.049546707790084
scalar abilene_cost_network.node[4].core_layer 	interests[4] 	191339
scalar abilene_cost_network.node[4].core_layer 	data[4] 	117362
scalar abilene_cost_network.node[4].content_store 	p_hit[4] 	0.38650249034436
scalar abilene_cost_network.node[4].content_store 	hits[4] 	73953
scalar abilene_cost_network.node[4].content_store 	misses[4] 	117386
scalar abilene_cost_network.node[4].content_store 	decision_yes[4] 	5882
scalar abilene_cost_network.node[4].content_store 	decision_no[4] 	111480
scalar abilene_cost_network.node[4].content_store 	decision_ratio[4] 	0.050118436972785
scalar abilene_cost_network.node[5].core_layer 	interests[5] 	31483
scalar abilene_cost_network.node[5].core_layer 	data[5] 	3759
scalar abilene_cost_network.node[5].content_store 	p_hit[5] 	0.8806022297748
scalar abilene_cost_network.node[5].content_store 	hits[5] 	27724
scalar abilene_cost_network.node[5].content_store 	misses[5] 	3759
scalar abilene_cost_network.node[5].content_store 	decision_yes[5] 	184
scalar abilene_cost_network.node[5].content_store 	decision_no[5] 	3575
scalar abilene_cost_network.node[5].content_store 	decision_ratio[5] 	0.048949188613993
scalar abilene_cost_network.node[6].core_layer 	interests[6] 	182504
scalar abilene_cost_network.node[6].core_layer 	data[6] 	115464
scalar abilene_cost_network.node[6].content_store 	p_hit[6] 	0.3671809932933
scalar abilene_cost_network.node[6].content_store 	hits[6] 	67012
scalar abilene_cost_network.node[6].content_store 	misses[6] 	115492
scalar abilene_cost_network.node[6].content_store 	decision_yes[6] 	5920
scalar abilene_cost_network.node[6].content_store 	decision_no[6] 	109544
scalar abilene_cost_network.node[6].content_store 	decision_ratio[6] 	0.051271391949006
scalar abilene_cost_network.node[7].core_layer 	interests[7] 	105211
scalar abilene_cost_network.node[7].core_layer 	data[7] 	97302
scalar abilene_cost_network.node[7].content_store 	p_hit[7] 	0.075172748096682
scalar abilene_cost_network.node[7].content_store 	hits[7] 	7909
scalar abilene_cost_network.node[7].content_store 	misses[7] 	97302
scalar abilene_cost_network.node[7].content_store 	decision_yes[7] 	4875
scalar abilene_cost_network.node[7].content_store 	decision_no[7] 	92427
scalar abilene_cost_network.node[7].content_store 	decision_ratio[7] 	0.050101745082321
scalar abilene_cost_network.node[8].core_layer 	interests[8] 	39819
scalar abilene_cost_network.node[8].core_layer 	data[8] 	30776
scalar abilene_cost_network.node[8].content_store 	p_hit[8] 	0.22707752580426
scalar abilene_cost_network.node[8].content_store 	hits[8] 	9042
scalar abilene_cost_network.node[8].content_store 	misses[8] 	30777
scalar abilene_cost_network.node[8].content_store 	decision_yes[8] 	1504
scalar abilene_cost_network.node[8].content_store 	decision_no[8] 	29272
scalar abilene_cost_network.node[8].content_store 	decision_ratio[8] 	0.048869248765272
scalar abilene_cost_network.node[9].core_layer 	interests[9] 	30776
scalar abilene_cost_network.node[9].core_layer 	data[9] 	27221
scalar abilene_cost_network.node[9].content_store 	p_hit[9] 	0.11551208734079
scalar abilene_cost_network.node[9].content_store 	hits[9] 	3555
scalar abilene_cost_network.node[9].content_store 	misses[9] 	27221
scalar abilene_cost_network.node[9].content_store 	decision_yes[9] 	1365
scalar abilene_cost_network.node[9].content_store 	decision_no[9] 	25856
scalar abilene_cost_network.node[9].content_store 	decision_ratio[9] 	0.050145108555894
scalar abilene_cost_network.node[10].core_layer 	interests[10] 	81666
scalar abilene_cost_network.node[10].core_layer 	repo_load[10] 	79040
scalar abilene_cost_network.node[10].core_layer 	data[10] 	0
scalar abilene_cost_network.node[10].content_store 	p_hit[10] 	0.032155364533588
scalar abilene_cost_network.node[10].content_store 	hits[10] 	2626
scalar abilene_cost_network.node[10].content_store 	misses[10] 	79040
scalar abilene_cost_network.node[10].content_store 	decision_yes[10] 	3820
scalar abilene_cost_network.node[10].content_store 	decision_no[10] 	75220
scalar abilene_cost_network.node[10].content_store 	decision_ratio[10] 	0.04832995951417
scalar abilene_cost_network.client[2] 	hdistance[2] 	1.3863779260306
scalar abilene_cost_network.client[2] 	downloads[2] 	179723
scalar abilene_cost_network.client[2] 	avg_time[2] 	0.00628455005
scalar abilene_cost_network.client[4] 	hdistance[4] 	2.3145352838021
scalar abilene_cost_network.client[4] 	downloads[4] 	180196
scalar abilene_cost_network.client[4] 	avg_time[4] 	0.009570074494
scalar abilene_cost_network.client[6] 	hdistance[6] 	2.6492713524565
scalar abilene_cost_network.client[6] 	downloads[6] 	179991
scalar abilene_cost_network.client[6] 	avg_time[6] 	0.013749475971
