version 2
run General-17-20141007-11:55:18-22107
attr D fix0.05
attr F nrr
attr R lru
attr a 1
attr configname General
attr csize 1e3
attr ctlg 1e5
attr datetime 20141007-11:55:18
attr experiment General
attr inifile omnetpp.ini
attr iterationvars "$net=abilene_cost, $rep=3, $priceratiovalue=10, $weights=0.333_0.333_0.334, $lambda=100, $a=1, $ctlg=1e5, $F=nrr, $ttl=10, $D=fix0.05, $xi=1, $R=lru, $csize=1e3, $pricebits=0, $window=60, $variance=0.05, $mytime=1800"
attr iterationvars2 "$net=abilene_cost, $rep=3, $priceratiovalue=10, $weights=0.333_0.333_0.334, $lambda=100, $a=1, $ctlg=1e5, $F=nrr, $ttl=10, $D=fix0.05, $xi=1, $R=lru, $csize=1e3, $pricebits=0, $window=60, $variance=0.05, $mytime=1800, $repetition=0"
attr lambda 100
attr measurement "$net=abilene_cost, $rep=3, $priceratiovalue=10, $weights=0.333_0.333_0.334, $lambda=100, $a=1, $ctlg=1e5, $F=nrr, $ttl=10, $D=fix0.05, $xi=1, $R=lru, $csize=1e3, $pricebits=0, $window=60, $variance=0.05, $mytime=1800"
attr mytime 1800
attr net abilene_cost
attr network networks.${net=abilene_cost,geant_cost}_network
attr pricebits 0
attr priceratiovalue 10
attr processid 22107
attr rep 3
attr repetition 0
attr replication #0
attr resultdir results
attr runnumber 17
attr seedset 3
attr ttl 10
attr variance 0.05
attr weights 0.333_0.333_0.334
attr window 60
attr xi 1

scalar . 	a 	1
scalar . 	csize 	1e3
scalar . 	ctlg 	1e5
scalar . 	lambda 	100
scalar . 	mytime 	1800
scalar . 	pricebits 	0
scalar . 	priceratiovalue 	10
scalar . 	rep 	3
scalar . 	ttl 	10
scalar . 	variance 	0.05
scalar . 	window 	60
scalar . 	xi 	1
scalar abilene_cost_network.content_distribution 	repo-0 	9
scalar abilene_cost_network.content_distribution 	repo-1 	4
scalar abilene_cost_network.content_distribution 	repo-2 	0
scalar abilene_cost_network.content_distribution 	client-0 	9
scalar abilene_cost_network.content_distribution 	client-1 	0
scalar abilene_cost_network.content_distribution 	client-2 	1
scalar abilene_cost_network.content_distribution 	repo-0_card 	33498
scalar abilene_cost_network.content_distribution 	repo-0_price 	0
scalar abilene_cost_network.content_distribution 	repo-1_card 	33168
scalar abilene_cost_network.content_distribution 	repo-1_price 	10
scalar abilene_cost_network.content_distribution 	repo-2_card 	33334
scalar abilene_cost_network.content_distribution 	repo-2_price 	1
scalar abilene_cost_network.statistics 	repo_popularity[0] 	0.34820484875244
scalar abilene_cost_network.statistics 	repo_popularity[1] 	0.25519349814637
scalar abilene_cost_network.statistics 	repo_popularity[2] 	0.3966016531012
scalar abilene_cost_network.statistics 	stabilization_time 	36060
scalar abilene_cost_network.statistics 	p_hit 	0.21673423745518
scalar abilene_cost_network.statistics 	interests 	105523.45454545
scalar abilene_cost_network.statistics 	data 	56524.363636364
scalar abilene_cost_network.statistics 	hdistance 	1.6870504206826
scalar abilene_cost_network.statistics 	avg_time 	0.007457008035
scalar abilene_cost_network.statistics 	downloads 	538871
scalar abilene_cost_network.statistics 	total_cost 	889502
scalar abilene_cost_network.statistics 	total_replicas 	100000
scalar abilene_cost_network.statistics 	inner_hit 	0.46687982838193
scalar abilene_cost_network.node[0].core_layer 	interests[0] 	251179
scalar abilene_cost_network.node[0].core_layer 	repo_load[0] 	100092
scalar abilene_cost_network.node[0].core_layer 	data[0] 	81558
scalar abilene_cost_network.node[0].core_layer 	repo_int[0] 	287283
scalar abilene_cost_network.node[0].content_store 	p_hit[0] 	0.27665131241067
scalar abilene_cost_network.node[0].content_store 	hits[0] 	69489
scalar abilene_cost_network.node[0].content_store 	misses[0] 	181690
scalar abilene_cost_network.node[0].content_store 	decision_yes[0] 	9172
scalar abilene_cost_network.node[0].content_store 	decision_no[0] 	172478
scalar abilene_cost_network.node[0].content_store 	decision_ratio[0] 	0.050492705752821
scalar abilene_cost_network.node[1].core_layer 	interests[1] 	222064
scalar abilene_cost_network.node[1].core_layer 	data[1] 	150160
scalar abilene_cost_network.node[1].content_store 	p_hit[1] 	0.32355537142445
scalar abilene_cost_network.node[1].content_store 	hits[1] 	71850
scalar abilene_cost_network.node[1].content_store 	misses[1] 	150214
scalar abilene_cost_network.node[1].content_store 	decision_yes[1] 	7622
scalar abilene_cost_network.node[1].content_store 	decision_no[1] 	142538
scalar abilene_cost_network.node[1].content_store 	decision_ratio[1] 	0.050759190197123
scalar abilene_cost_network.node[2].core_layer 	interests[2] 	99453
scalar abilene_cost_network.node[2].core_layer 	data[2] 	90914
scalar abilene_cost_network.node[2].content_store 	p_hit[2] 	0.085839542296361
scalar abilene_cost_network.node[2].content_store 	hits[2] 	8537
scalar abilene_cost_network.node[2].content_store 	misses[2] 	90916
scalar abilene_cost_network.node[2].content_store 	decision_yes[2] 	4553
scalar abilene_cost_network.node[2].content_store 	decision_no[2] 	86361
scalar abilene_cost_network.node[2].content_store 	decision_ratio[2] 	0.050080295664034
scalar abilene_cost_network.node[3].core_layer 	interests[3] 	85177
scalar abilene_cost_network.node[3].core_layer 	data[3] 	81435
scalar abilene_cost_network.node[3].content_store 	p_hit[3] 	0.043943787642204
scalar abilene_cost_network.node[3].content_store 	hits[3] 	3743
scalar abilene_cost_network.node[3].content_store 	misses[3] 	81434
scalar abilene_cost_network.node[3].content_store 	decision_yes[3] 	4100
scalar abilene_cost_network.node[3].content_store 	decision_no[3] 	77335
scalar abilene_cost_network.node[3].content_store 	decision_ratio[3] 	0.050346902437527
scalar abilene_cost_network.node[4].core_layer 	interests[4] 	81435
scalar abilene_cost_network.node[4].core_layer 	repo_load[4] 	78941
scalar abilene_cost_network.node[4].core_layer 	data[4] 	0
scalar abilene_cost_network.node[4].content_store 	p_hit[4] 	0.030625652360779
scalar abilene_cost_network.node[4].content_store 	hits[4] 	2494
scalar abilene_cost_network.node[4].content_store 	misses[4] 	78941
scalar abilene_cost_network.node[4].content_store 	decision_yes[4] 	3976
scalar abilene_cost_network.node[4].content_store 	decision_no[4] 	74965
scalar abilene_cost_network.node[4].content_store 	decision_ratio[4] 	0.050366729582853
scalar abilene_cost_network.node[5].core_layer 	interests[5] 	0
scalar abilene_cost_network.node[5].core_layer 	data[5] 	0
scalar abilene_cost_network.node[5].content_store 	p_hit[5] 	-nan
scalar abilene_cost_network.node[5].content_store 	hits[5] 	0
scalar abilene_cost_network.node[5].content_store 	misses[5] 	0
scalar abilene_cost_network.node[5].content_store 	decision_yes[5] 	0
scalar abilene_cost_network.node[5].content_store 	decision_no[5] 	0
scalar abilene_cost_network.node[5].content_store 	decision_ratio[5] 	0
scalar abilene_cost_network.node[6].core_layer 	interests[6] 	0
scalar abilene_cost_network.node[6].core_layer 	data[6] 	0
scalar abilene_cost_network.node[6].content_store 	p_hit[6] 	-nan
scalar abilene_cost_network.node[6].content_store 	hits[6] 	0
scalar abilene_cost_network.node[6].content_store 	misses[6] 	0
scalar abilene_cost_network.node[6].content_store 	decision_yes[6] 	0
scalar abilene_cost_network.node[6].content_store 	decision_no[6] 	0
scalar abilene_cost_network.node[6].content_store 	decision_ratio[6] 	0
scalar abilene_cost_network.node[7].core_layer 	interests[7] 	0
scalar abilene_cost_network.node[7].core_layer 	data[7] 	0
scalar abilene_cost_network.node[7].content_store 	p_hit[7] 	-nan
scalar abilene_cost_network.node[7].content_store 	hits[7] 	0
scalar abilene_cost_network.node[7].content_store 	misses[7] 	0
scalar abilene_cost_network.node[7].content_store 	decision_yes[7] 	0
scalar abilene_cost_network.node[7].content_store 	decision_no[7] 	0
scalar abilene_cost_network.node[7].content_store 	decision_ratio[7] 	0
scalar abilene_cost_network.node[8].core_layer 	interests[8] 	41218
scalar abilene_cost_network.node[8].core_layer 	data[8] 	30410
scalar abilene_cost_network.node[8].content_store 	p_hit[8] 	0.26223979814644
scalar abilene_cost_network.node[8].content_store 	hits[8] 	10809
scalar abilene_cost_network.node[8].content_store 	misses[8] 	30409
scalar abilene_cost_network.node[8].content_store 	decision_yes[8] 	1564
scalar abilene_cost_network.node[8].content_store 	decision_no[8] 	28846
scalar abilene_cost_network.node[8].content_store 	decision_ratio[8] 	0.051430450509701
scalar abilene_cost_network.node[9].core_layer 	interests[9] 	252104
scalar abilene_cost_network.node[9].core_layer 	repo_load[9] 	108250
scalar abilene_cost_network.node[9].core_layer 	data[9] 	78624
scalar abilene_cost_network.node[9].content_store 	p_hit[9] 	0.25861549201917
scalar abilene_cost_network.node[9].content_store 	hits[9] 	65198
scalar abilene_cost_network.node[9].content_store 	misses[9] 	186906
scalar abilene_cost_network.node[9].content_store 	decision_yes[9] 	9420
scalar abilene_cost_network.node[9].content_store 	decision_no[9] 	177454
scalar abilene_cost_network.node[9].content_store 	decision_ratio[9] 	0.050408296499245
scalar abilene_cost_network.node[10].core_layer 	interests[10] 	128128
scalar abilene_cost_network.node[10].core_layer 	data[10] 	108667
scalar abilene_cost_network.node[10].content_store 	p_hit[10] 	0.15184815184815
scalar abilene_cost_network.node[10].content_store 	hits[10] 	19456
scalar abilene_cost_network.node[10].content_store 	misses[10] 	108672
scalar abilene_cost_network.node[10].content_store 	decision_yes[10] 	5437
scalar abilene_cost_network.node[10].content_store 	decision_no[10] 	103230
scalar abilene_cost_network.node[10].content_store 	decision_ratio[10] 	0.050033588854022
scalar abilene_cost_network.client[0] 	hdistance[0] 	1.710917089074
scalar abilene_cost_network.client[0] 	downloads[0] 	179132
scalar abilene_cost_network.client[0] 	avg_time[0] 	0.007184232087
scalar abilene_cost_network.client[1] 	hdistance[1] 	1.6847170273399
scalar abilene_cost_network.client[1] 	downloads[1] 	179664
scalar abilene_cost_network.client[1] 	avg_time[1] 	0.007699056954
scalar abilene_cost_network.client[9] 	hdistance[9] 	1.6655171456338
scalar abilene_cost_network.client[9] 	downloads[9] 	180075
scalar abilene_cost_network.client[9] 	avg_time[9] 	0.007487735064
