version 2
run General-6-20150225-12:02:52-16728
attr D costaware0.01
attr F nrr
attr R lru
attr a 1
attr configname General
attr csize 1e3
attr ctlg 1e5
attr datetime 20150225-12:02:52
attr experiment General
attr inifile omnetpp.ini
attr iterationvars "$rep=4, $net=geant_cost, $lambda=100, $a=1, $ctlg=1e5, $F=nrr, $ttl=10, $D=costaware0.01, $R=lru, $csize=1e3, $window=60, $variance=0.05, $mytime=1800, $kappa=1, $priceratiovalue=10, $pricebits=0"
attr iterationvars2 "$rep=4, $net=geant_cost, $lambda=100, $a=1, $ctlg=1e5, $F=nrr, $ttl=10, $D=costaware0.01, $R=lru, $csize=1e3, $window=60, $variance=0.05, $mytime=1800, $kappa=1, $priceratiovalue=10, $pricebits=0, $repetition=0"
attr kappa 1
attr lambda 100
attr measurement "$rep=4, $net=geant_cost, $lambda=100, $a=1, $ctlg=1e5, $F=nrr, $ttl=10, $D=costaware0.01, $R=lru, $csize=1e3, $window=60, $variance=0.05, $mytime=1800, $kappa=1, $priceratiovalue=10, $pricebits=0"
attr mytime 1800
attr net geant_cost
attr network networks.${net=geant_cost}_network
attr pricebits 0
attr priceratiovalue 10
attr processid 16728
attr rep 4
attr repetition 0
attr replication #0
attr resultdir results
attr runnumber 6
attr seedset 4
attr ttl 10
attr variance 0.05
attr window 60

scalar . 	a 	1
scalar . 	csize 	1e3
scalar . 	ctlg 	1e5
scalar . 	kappa 	1
scalar . 	lambda 	100
scalar . 	mytime 	1800
scalar . 	pricebits 	0
scalar . 	priceratiovalue 	10
scalar . 	rep 	4
scalar . 	ttl 	10
scalar . 	variance 	0.05
scalar . 	window 	60
scalar geant_cost_network.content_distribution 	repo-0 	18
scalar geant_cost_network.content_distribution 	repo-1 	6
scalar geant_cost_network.content_distribution 	repo-2 	9
scalar geant_cost_network.content_distribution 	client-0 	16
scalar geant_cost_network.content_distribution 	client-1 	10
scalar geant_cost_network.content_distribution 	client-2 	6
scalar geant_cost_network.content_distribution 	client-3 	2
scalar geant_cost_network.content_distribution 	client-4 	20
scalar geant_cost_network.content_distribution 	client-5 	12
scalar geant_cost_network.content_distribution 	client-6 	3
scalar geant_cost_network.content_distribution 	client-7 	14
scalar geant_cost_network.content_distribution 	client-8 	5
scalar geant_cost_network.content_distribution 	client-9 	13
scalar geant_cost_network.content_distribution 	client-10 	9
scalar geant_cost_network.content_distribution 	client-11 	11
scalar geant_cost_network.content_distribution 	client-12 	0
scalar geant_cost_network.content_distribution 	client-13 	19
scalar geant_cost_network.content_distribution 	client-14 	21
scalar geant_cost_network.content_distribution 	client-15 	1
scalar geant_cost_network.content_distribution 	client-16 	18
scalar geant_cost_network.content_distribution 	client-17 	8
scalar geant_cost_network.content_distribution 	client-18 	7
scalar geant_cost_network.content_distribution 	client-19 	17
scalar geant_cost_network.content_distribution 	client-20 	15
scalar geant_cost_network.content_distribution 	client-21 	4
scalar geant_cost_network.content_distribution 	repo-0_card 	33278
scalar geant_cost_network.content_distribution 	repo-0_price 	1
scalar geant_cost_network.content_distribution 	repo-1_card 	33143
scalar geant_cost_network.content_distribution 	repo-1_price 	0
scalar geant_cost_network.content_distribution 	repo-2_card 	33579
scalar geant_cost_network.content_distribution 	repo-2_price 	10
scalar geant_cost_network.statistics 	repo_popularity[0] 	0.31075826888777
scalar geant_cost_network.statistics 	repo_popularity[1] 	0.37382978407287
scalar geant_cost_network.statistics 	repo_popularity[2] 	0.31541194703938
scalar geant_cost_network.statistics 	stabilization_time 	173.9
scalar geant_cost_network.statistics 	p_hit 	0.095707309600427
scalar geant_cost_network.statistics 	interests 	588687.81818182
scalar geant_cost_network.statistics 	data 	408654.40909091
scalar geant_cost_network.statistics 	hdistance 	3.0680993391426
scalar geant_cost_network.statistics 	avg_time 	0.016092518575
scalar geant_cost_network.statistics 	downloads 	3900116
scalar geant_cost_network.statistics 	total_cost 	6095180
scalar geant_cost_network.statistics 	total_replicas 	100000
scalar geant_cost_network.statistics 	inner_hit 	0.36582911892877
scalar geant_cost_network.statistics 	interests_sent 	3960717
scalar geant_cost_network.node[0].core_layer 	interests[0] 	214785
scalar geant_cost_network.node[0].core_layer 	data[0] 	178747
scalar geant_cost_network.node[0].core_layer 	repo_int[0] 	2473340
scalar geant_cost_network.node[0].content_store 	p_hit[0] 	0.12565588844659
scalar geant_cost_network.node[0].content_store 	hits[0] 	26989
scalar geant_cost_network.node[0].content_store 	misses[0] 	187796
scalar geant_cost_network.node[0].content_store 	decision_yes[0] 	681
scalar geant_cost_network.node[0].content_store 	decision_no[0] 	178066
scalar geant_cost_network.node[0].content_store 	decision_ratio[0] 	0.0038098541513983
scalar geant_cost_network.node[0].content_store 	cache_value[0] 	0.56049787095779
scalar geant_cost_network.node[0].content_store 	correction_factor[0] 	0.0027225701061802
scalar geant_cost_network.node[0].content_store 	kappa[0] 	1
scalar geant_cost_network.node[1].core_layer 	interests[1] 	433630
scalar geant_cost_network.node[1].core_layer 	data[1] 	381036
scalar geant_cost_network.node[1].content_store 	p_hit[1] 	0.095911260752254
scalar geant_cost_network.node[1].content_store 	hits[1] 	41590
scalar geant_cost_network.node[1].content_store 	misses[1] 	392040
scalar geant_cost_network.node[1].content_store 	decision_yes[1] 	1264
scalar geant_cost_network.node[1].content_store 	decision_no[1] 	379771
scalar geant_cost_network.node[1].content_store 	decision_ratio[1] 	0.0033172805647775
scalar geant_cost_network.node[1].content_store 	cache_value[1] 	1.5533617460149
scalar geant_cost_network.node[1].content_store 	correction_factor[1] 	0.0027225701061802
scalar geant_cost_network.node[1].content_store 	kappa[1] 	1
scalar geant_cost_network.node[2].core_layer 	interests[2] 	207239
scalar geant_cost_network.node[2].core_layer 	data[2] 	174170
scalar geant_cost_network.node[2].content_store 	p_hit[2] 	0.14262276888037
scalar geant_cost_network.node[2].content_store 	hits[2] 	29557
scalar geant_cost_network.node[2].content_store 	misses[2] 	177682
scalar geant_cost_network.node[2].content_store 	decision_yes[2] 	688
scalar geant_cost_network.node[2].content_store 	decision_no[2] 	173482
scalar geant_cost_network.node[2].content_store 	decision_ratio[2] 	0.0039501636332319
scalar geant_cost_network.node[2].content_store 	cache_value[2] 	0.99436837279084
scalar geant_cost_network.node[2].content_store 	correction_factor[2] 	0.0027225701061802
scalar geant_cost_network.node[2].content_store 	kappa[2] 	1
scalar geant_cost_network.node[3].core_layer 	interests[3] 	1082065
scalar geant_cost_network.node[3].core_layer 	data[3] 	989329
scalar geant_cost_network.node[3].content_store 	p_hit[3] 	0.052356374154972
scalar geant_cost_network.node[3].content_store 	hits[3] 	56653
scalar geant_cost_network.node[3].content_store 	misses[3] 	1025412
scalar geant_cost_network.node[3].content_store 	decision_yes[3] 	3566
scalar geant_cost_network.node[3].content_store 	decision_no[3] 	985763
scalar geant_cost_network.node[3].content_store 	decision_ratio[3] 	0.0036044632270963
scalar geant_cost_network.node[3].content_store 	cache_value[3] 	0.57396996607201
scalar geant_cost_network.node[3].content_store 	correction_factor[3] 	0.0027225701061802
scalar geant_cost_network.node[3].content_store 	kappa[3] 	1
scalar geant_cost_network.node[4].core_layer 	interests[4] 	924353
scalar geant_cost_network.node[4].core_layer 	data[4] 	795279
scalar geant_cost_network.node[4].content_store 	p_hit[4] 	0.13410244787435
scalar geant_cost_network.node[4].content_store 	hits[4] 	123958
scalar geant_cost_network.node[4].content_store 	misses[4] 	800395
scalar geant_cost_network.node[4].content_store 	decision_yes[4] 	3890
scalar geant_cost_network.node[4].content_store 	decision_no[4] 	791389
scalar geant_cost_network.node[4].content_store 	decision_ratio[4] 	0.0048913651687018
scalar geant_cost_network.node[4].content_store 	cache_value[4] 	0.70731488221196
scalar geant_cost_network.node[4].content_store 	correction_factor[4] 	0.0027225701061802
scalar geant_cost_network.node[4].content_store 	kappa[4] 	1
scalar geant_cost_network.node[5].core_layer 	interests[5] 	1123754
scalar geant_cost_network.node[5].core_layer 	data[5] 	1050236
scalar geant_cost_network.node[5].content_store 	p_hit[5] 	0.029329372798673
scalar geant_cost_network.node[5].content_store 	hits[5] 	32959
scalar geant_cost_network.node[5].content_store 	misses[5] 	1090795
scalar geant_cost_network.node[5].content_store 	decision_yes[5] 	648
scalar geant_cost_network.node[5].content_store 	decision_no[5] 	1049588
scalar geant_cost_network.node[5].content_store 	decision_ratio[5] 	0.00061700417810854
scalar geant_cost_network.node[5].content_store 	cache_value[5] 	0.75457405987546
scalar geant_cost_network.node[5].content_store 	correction_factor[5] 	0.0027225701061802
scalar geant_cost_network.node[5].content_store 	kappa[5] 	1
scalar geant_cost_network.node[6].core_layer 	interests[6] 	1428837
scalar geant_cost_network.node[6].core_layer 	repo_load[6] 	1290612
scalar geant_cost_network.node[6].core_layer 	data[6] 	118010
scalar geant_cost_network.node[6].content_store 	p_hit[6] 	0.013797235093996
scalar geant_cost_network.node[6].content_store 	hits[6] 	19714
scalar geant_cost_network.node[6].content_store 	misses[6] 	1409123
scalar geant_cost_network.node[6].content_store 	decision_yes[6] 	689
scalar geant_cost_network.node[6].content_store 	decision_no[6] 	1407933
scalar geant_cost_network.node[6].content_store 	decision_ratio[6] 	0.00048913051194714
scalar geant_cost_network.node[6].content_store 	cache_value[6] 	0.73463308683861
scalar geant_cost_network.node[6].content_store 	correction_factor[6] 	0.0027225701061802
scalar geant_cost_network.node[6].content_store 	kappa[6] 	1
scalar geant_cost_network.node[7].core_layer 	interests[7] 	795356
scalar geant_cost_network.node[7].core_layer 	data[7] 	745626
scalar geant_cost_network.node[7].content_store 	p_hit[7] 	0.051613365587234
scalar geant_cost_network.node[7].content_store 	hits[7] 	41051
scalar geant_cost_network.node[7].content_store 	misses[7] 	754305
scalar geant_cost_network.node[7].content_store 	decision_yes[7] 	4511
scalar geant_cost_network.node[7].content_store 	decision_no[7] 	741115
scalar geant_cost_network.node[7].content_store 	decision_ratio[7] 	0.0060499499749204
scalar geant_cost_network.node[7].content_store 	cache_value[7] 	1.6429159963536
scalar geant_cost_network.node[7].content_store 	correction_factor[7] 	0.0027225701061802
scalar geant_cost_network.node[7].content_store 	kappa[7] 	1
scalar geant_cost_network.node[8].core_layer 	interests[8] 	574538
scalar geant_cost_network.node[8].core_layer 	data[8] 	537167
scalar geant_cost_network.node[8].content_store 	p_hit[8] 	0.058191103112414
scalar geant_cost_network.node[8].content_store 	hits[8] 	33433
scalar geant_cost_network.node[8].content_store 	misses[8] 	541105
scalar geant_cost_network.node[8].content_store 	decision_yes[8] 	5402
scalar geant_cost_network.node[8].content_store 	decision_no[8] 	531765
scalar geant_cost_network.node[8].content_store 	decision_ratio[8] 	0.010056462887705
scalar geant_cost_network.node[8].content_store 	cache_value[8] 	4.5524952678212
scalar geant_cost_network.node[8].content_store 	correction_factor[8] 	0.0027225701061802
scalar geant_cost_network.node[8].content_store 	kappa[8] 	1
scalar geant_cost_network.node[9].core_layer 	interests[9] 	1005582
scalar geant_cost_network.node[9].core_layer 	repo_load[9] 	545828
scalar geant_cost_network.node[9].core_layer 	data[9] 	244556
scalar geant_cost_network.node[9].content_store 	p_hit[9] 	0.21128759265778
scalar geant_cost_network.node[9].content_store 	hits[9] 	212467
scalar geant_cost_network.node[9].content_store 	misses[9] 	793115
scalar geant_cost_network.node[9].content_store 	decision_yes[9] 	15120
scalar geant_cost_network.node[9].content_store 	decision_no[9] 	775264
scalar geant_cost_network.node[9].content_store 	decision_ratio[9] 	0.019129941901658
scalar geant_cost_network.node[9].content_store 	cache_value[9] 	12.681511263479
scalar geant_cost_network.node[9].content_store 	correction_factor[9] 	0.0027225701061802
scalar geant_cost_network.node[9].content_store 	kappa[9] 	1
scalar geant_cost_network.node[10].core_layer 	interests[10] 	226328
scalar geant_cost_network.node[10].core_layer 	data[10] 	194188
scalar geant_cost_network.node[10].content_store 	p_hit[10] 	0.13611660952246
scalar geant_cost_network.node[10].content_store 	hits[10] 	30807
scalar geant_cost_network.node[10].content_store 	misses[10] 	195521
scalar geant_cost_network.node[10].content_store 	decision_yes[10] 	1652
scalar geant_cost_network.node[10].content_store 	decision_no[10] 	192536
scalar geant_cost_network.node[10].content_store 	decision_ratio[10] 	0.0085072198076091
scalar geant_cost_network.node[10].content_store 	cache_value[10] 	10.395396499076
scalar geant_cost_network.node[10].content_store 	correction_factor[10] 	0.0027225701061802
scalar geant_cost_network.node[10].content_store 	kappa[10] 	1
scalar geant_cost_network.node[11].core_layer 	interests[11] 	202974
scalar geant_cost_network.node[11].core_layer 	data[11] 	175277
scalar geant_cost_network.node[11].content_store 	p_hit[11] 	0.12554317301723
scalar geant_cost_network.node[11].content_store 	hits[11] 	25482
scalar geant_cost_network.node[11].content_store 	misses[11] 	177492
scalar geant_cost_network.node[11].content_store 	decision_yes[11] 	759
scalar geant_cost_network.node[11].content_store 	decision_no[11] 	174518
scalar geant_cost_network.node[11].content_store 	decision_ratio[11] 	0.004330288628856
scalar geant_cost_network.node[11].content_store 	cache_value[11] 	1.7510313380336
scalar geant_cost_network.node[11].content_store 	correction_factor[11] 	0.0027225701061802
scalar geant_cost_network.node[11].content_store 	kappa[11] 	1
scalar geant_cost_network.node[12].core_layer 	interests[12] 	858818
scalar geant_cost_network.node[12].core_layer 	data[12] 	760604
scalar geant_cost_network.node[12].content_store 	p_hit[12] 	0.10101092431691
scalar geant_cost_network.node[12].content_store 	hits[12] 	86750
scalar geant_cost_network.node[12].content_store 	misses[12] 	772068
scalar geant_cost_network.node[12].content_store 	decision_yes[12] 	7148
scalar geant_cost_network.node[12].content_store 	decision_no[12] 	753451
scalar geant_cost_network.node[12].content_store 	decision_ratio[12] 	0.009397856163366
scalar geant_cost_network.node[12].content_store 	cache_value[12] 	3.8832229681807
scalar geant_cost_network.node[12].content_store 	correction_factor[12] 	0.0027225701061802
scalar geant_cost_network.node[12].content_store 	kappa[12] 	1
scalar geant_cost_network.node[13].core_layer 	interests[13] 	327171
scalar geant_cost_network.node[13].core_layer 	data[13] 	246199
scalar geant_cost_network.node[13].content_store 	p_hit[13] 	0.21228042827757
scalar geant_cost_network.node[13].content_store 	hits[13] 	69452
scalar geant_cost_network.node[13].content_store 	misses[13] 	257719
scalar geant_cost_network.node[13].content_store 	decision_yes[13] 	1881
scalar geant_cost_network.node[13].content_store 	decision_no[13] 	244315
scalar geant_cost_network.node[13].content_store 	decision_ratio[13] 	0.0076402541064843
scalar geant_cost_network.node[13].content_store 	cache_value[13] 	4.0937366408326
scalar geant_cost_network.node[13].content_store 	correction_factor[13] 	0.0027225701061802
scalar geant_cost_network.node[13].content_store 	kappa[13] 	1
scalar geant_cost_network.node[14].core_layer 	interests[14] 	917151
scalar geant_cost_network.node[14].core_layer 	data[14] 	796947
scalar geant_cost_network.node[14].content_store 	p_hit[14] 	0.060683573370143
scalar geant_cost_network.node[14].content_store 	hits[14] 	55656
scalar geant_cost_network.node[14].content_store 	misses[14] 	861495
scalar geant_cost_network.node[14].content_store 	decision_yes[14] 	1577
scalar geant_cost_network.node[14].content_store 	decision_no[14] 	795370
scalar geant_cost_network.node[14].content_store 	decision_ratio[14] 	0.0019788016016122
scalar geant_cost_network.node[14].content_store 	cache_value[14] 	0.57757241726188
scalar geant_cost_network.node[14].content_store 	correction_factor[14] 	0.0027225701061802
scalar geant_cost_network.node[14].content_store 	kappa[14] 	1
scalar geant_cost_network.node[15].core_layer 	interests[15] 	275211
scalar geant_cost_network.node[15].core_layer 	data[15] 	248839
scalar geant_cost_network.node[15].content_store 	p_hit[15] 	0.083895629171799
scalar geant_cost_network.node[15].content_store 	hits[15] 	23089
scalar geant_cost_network.node[15].content_store 	misses[15] 	252122
scalar geant_cost_network.node[15].content_store 	decision_yes[15] 	1304
scalar geant_cost_network.node[15].content_store 	decision_no[15] 	247535
scalar geant_cost_network.node[15].content_store 	decision_ratio[15] 	0.0052403361209457
scalar geant_cost_network.node[15].content_store 	cache_value[15] 	0.59694712278917
scalar geant_cost_network.node[15].content_store 	correction_factor[15] 	0.0027225701061802
scalar geant_cost_network.node[15].content_store 	kappa[15] 	1
scalar geant_cost_network.node[16].core_layer 	interests[16] 	201400
scalar geant_cost_network.node[16].core_layer 	data[16] 	173429
scalar geant_cost_network.node[16].content_store 	p_hit[16] 	0.11018867924528
scalar geant_cost_network.node[16].content_store 	hits[16] 	22192
scalar geant_cost_network.node[16].content_store 	misses[16] 	179208
scalar geant_cost_network.node[16].content_store 	decision_yes[16] 	679
scalar geant_cost_network.node[16].content_store 	decision_no[16] 	172750
scalar geant_cost_network.node[16].content_store 	decision_ratio[16] 	0.0039151468324213
scalar geant_cost_network.node[16].content_store 	cache_value[16] 	0.67530704891461
scalar geant_cost_network.node[16].content_store 	correction_factor[16] 	0.0027225701061802
scalar geant_cost_network.node[16].content_store 	kappa[16] 	1
scalar geant_cost_network.node[17].core_layer 	interests[17] 	256565
scalar geant_cost_network.node[17].core_layer 	data[17] 	230525
scalar geant_cost_network.node[17].content_store 	p_hit[17] 	0.087096837058835
scalar geant_cost_network.node[17].content_store 	hits[17] 	22346
scalar geant_cost_network.node[17].content_store 	misses[17] 	234219
scalar geant_cost_network.node[17].content_store 	decision_yes[17] 	788
scalar geant_cost_network.node[17].content_store 	decision_no[17] 	229737
scalar geant_cost_network.node[17].content_store 	decision_ratio[17] 	0.0034182843509381
scalar geant_cost_network.node[17].content_store 	cache_value[17] 	0.3231935043793
scalar geant_cost_network.node[17].content_store 	correction_factor[17] 	0.0027225701061802
scalar geant_cost_network.node[17].content_store 	kappa[17] 	1
scalar geant_cost_network.node[18].core_layer 	interests[18] 	1232727
scalar geant_cost_network.node[18].core_layer 	repo_load[18] 	636900
scalar geant_cost_network.node[18].core_layer 	data[18] 	360090
scalar geant_cost_network.node[18].content_store 	p_hit[18] 	0.17937872700119
scalar geant_cost_network.node[18].content_store 	hits[18] 	221125
scalar geant_cost_network.node[18].content_store 	misses[18] 	1011602
scalar geant_cost_network.node[18].content_store 	decision_yes[18] 	3572
scalar geant_cost_network.node[18].content_store 	decision_no[18] 	993418
scalar geant_cost_network.node[18].content_store 	decision_ratio[18] 	0.003582784180383
scalar geant_cost_network.node[18].content_store 	cache_value[18] 	1.2326723977724
scalar geant_cost_network.node[18].content_store 	correction_factor[18] 	0.0027225701061802
scalar geant_cost_network.node[18].content_store 	kappa[18] 	1
scalar geant_cost_network.node[19].core_layer 	interests[19] 	192633
scalar geant_cost_network.node[19].core_layer 	data[19] 	172527
scalar geant_cost_network.node[19].content_store 	p_hit[19] 	0.090405070782265
scalar geant_cost_network.node[19].content_store 	hits[19] 	17415
scalar geant_cost_network.node[19].content_store 	misses[19] 	175218
scalar geant_cost_network.node[19].content_store 	decision_yes[19] 	682
scalar geant_cost_network.node[19].content_store 	decision_no[19] 	171845
scalar geant_cost_network.node[19].content_store 	decision_ratio[19] 	0.0039530044572734
scalar geant_cost_network.node[19].content_store 	cache_value[19] 	0.77454236503856
scalar geant_cost_network.node[19].content_store 	correction_factor[19] 	0.0027225701061802
scalar geant_cost_network.node[19].content_store 	kappa[19] 	1
scalar geant_cost_network.node[20].core_layer 	interests[20] 	203623
scalar geant_cost_network.node[20].core_layer 	data[20] 	174477
scalar geant_cost_network.node[20].content_store 	p_hit[20] 	0.13009335880524
scalar geant_cost_network.node[20].content_store 	hits[20] 	26490
scalar geant_cost_network.node[20].content_store 	misses[20] 	177133
scalar geant_cost_network.node[20].content_store 	decision_yes[20] 	686
scalar geant_cost_network.node[20].content_store 	decision_no[20] 	173791
scalar geant_cost_network.node[20].content_store 	decision_ratio[20] 	0.0039317503166606
scalar geant_cost_network.node[20].content_store 	cache_value[20] 	1.0165019241707
scalar geant_cost_network.node[20].content_store 	correction_factor[20] 	0.0027225701061802
scalar geant_cost_network.node[20].content_store 	kappa[20] 	1
scalar geant_cost_network.node[21].core_layer 	interests[21] 	266392
scalar geant_cost_network.node[21].core_layer 	data[21] 	243139
scalar geant_cost_network.node[21].content_store 	p_hit[21] 	0.076364905853029
scalar geant_cost_network.node[21].content_store 	hits[21] 	20343
scalar geant_cost_network.node[21].content_store 	misses[21] 	246049
scalar geant_cost_network.node[21].content_store 	decision_yes[21] 	810
scalar geant_cost_network.node[21].content_store 	decision_no[21] 	242329
scalar geant_cost_network.node[21].content_store 	decision_ratio[21] 	0.0033314277018496
scalar geant_cost_network.node[21].content_store 	cache_value[21] 	0.29505505390671
scalar geant_cost_network.node[21].content_store 	correction_factor[21] 	0.0027225701061802
scalar geant_cost_network.node[21].content_store 	kappa[21] 	1
scalar geant_cost_network.client[0] 	hdistance[0] 	3.9995371672291
scalar geant_cost_network.client[0] 	downloads[0] 	170688
scalar geant_cost_network.client[0] 	avg_time[0] 	0.056541546893
scalar geant_cost_network.client[0] 	interests_sent[0] 	179642
scalar geant_cost_network.client[1] 	hdistance[1] 	3.1743824470448
scalar geant_cost_network.client[1] 	downloads[1] 	177839
scalar geant_cost_network.client[1] 	avg_time[1] 	0.014001243813
scalar geant_cost_network.client[1] 	interests_sent[1] 	180244
scalar geant_cost_network.client[2] 	hdistance[2] 	3.4338470782294
scalar geant_cost_network.client[2] 	downloads[2] 	176417
scalar geant_cost_network.client[2] 	avg_time[2] 	0.019567130955
scalar geant_cost_network.client[2] 	interests_sent[2] 	179929
scalar geant_cost_network.client[3] 	hdistance[3] 	2.5070672073703
scalar geant_cost_network.client[3] 	downloads[3] 	177793
scalar geant_cost_network.client[3] 	avg_time[3] 	0.008720001378
scalar geant_cost_network.client[3] 	interests_sent[3] 	179392
scalar geant_cost_network.client[4] 	hdistance[4] 	2.5037538461538
scalar geant_cost_network.client[4] 	downloads[4] 	178750
scalar geant_cost_network.client[4] 	avg_time[4] 	0.005964114628
scalar geant_cost_network.client[4] 	interests_sent[4] 	179811
scalar geant_cost_network.client[5] 	hdistance[5] 	2.4134405043695
scalar geant_cost_network.client[5] 	downloads[5] 	178282
scalar geant_cost_network.client[5] 	avg_time[5] 	0.009927198634
scalar geant_cost_network.client[5] 	interests_sent[5] 	179582
scalar geant_cost_network.client[6] 	hdistance[6] 	2.3495051599185
scalar geant_cost_network.client[6] 	downloads[6] 	179654
scalar geant_cost_network.client[6] 	avg_time[6] 	0.006655926525
scalar geant_cost_network.client[6] 	interests_sent[6] 	180147
scalar geant_cost_network.client[7] 	hdistance[7] 	2.2083069294823
scalar geant_cost_network.client[7] 	downloads[7] 	179898
scalar geant_cost_network.client[7] 	avg_time[7] 	0.004751360684
scalar geant_cost_network.client[7] 	interests_sent[7] 	180518
scalar geant_cost_network.client[8] 	hdistance[8] 	2.619139850967
scalar geant_cost_network.client[8] 	downloads[8] 	179155
scalar geant_cost_network.client[8] 	avg_time[8] 	0.005151195347
scalar geant_cost_network.client[8] 	interests_sent[8] 	179958
scalar geant_cost_network.client[9] 	hdistance[9] 	2.9395561671729
scalar geant_cost_network.client[9] 	downloads[9] 	178761
scalar geant_cost_network.client[9] 	avg_time[9] 	0.00650612644
scalar geant_cost_network.client[9] 	interests_sent[9] 	179699
scalar geant_cost_network.client[10] 	hdistance[10] 	3.8260896193849
scalar geant_cost_network.client[10] 	downloads[10] 	179604
scalar geant_cost_network.client[10] 	avg_time[10] 	0.008322078511
scalar geant_cost_network.client[10] 	interests_sent[10] 	180920
scalar geant_cost_network.client[11] 	hdistance[11] 	3.7940775693146
scalar geant_cost_network.client[11] 	downloads[11] 	177596
scalar geant_cost_network.client[11] 	avg_time[11] 	0.012543779015
scalar geant_cost_network.client[11] 	interests_sent[11] 	179811
scalar geant_cost_network.client[12] 	hdistance[12] 	2.8913963645345
scalar geant_cost_network.client[12] 	downloads[12] 	178134
scalar geant_cost_network.client[12] 	avg_time[12] 	0.011434640828
scalar geant_cost_network.client[12] 	interests_sent[12] 	180202
scalar geant_cost_network.client[13] 	hdistance[13] 	2.9289365076609
scalar geant_cost_network.client[13] 	downloads[13] 	172761
scalar geant_cost_network.client[13] 	avg_time[13] 	0.04392939066
scalar geant_cost_network.client[13] 	interests_sent[13] 	180087
scalar geant_cost_network.client[14] 	hdistance[14] 	2.4926259064524
scalar geant_cost_network.client[14] 	downloads[14] 	175547
scalar geant_cost_network.client[14] 	avg_time[14] 	0.025648250371
scalar geant_cost_network.client[14] 	interests_sent[14] 	179570
scalar geant_cost_network.client[15] 	hdistance[15] 	2.8885962839168
scalar geant_cost_network.client[15] 	downloads[15] 	177714
scalar geant_cost_network.client[15] 	avg_time[15] 	0.013013907987
scalar geant_cost_network.client[15] 	interests_sent[15] 	180293
scalar geant_cost_network.client[16] 	hdistance[16] 	3.4383473946544
scalar geant_cost_network.client[16] 	downloads[16] 	174948
scalar geant_cost_network.client[16] 	avg_time[16] 	0.035199056049
scalar geant_cost_network.client[16] 	interests_sent[16] 	180727
scalar geant_cost_network.client[17] 	hdistance[17] 	3.3177789496963
scalar geant_cost_network.client[17] 	downloads[17] 	176349
scalar geant_cost_network.client[17] 	avg_time[17] 	0.016343443965
scalar geant_cost_network.client[17] 	interests_sent[17] 	179893
scalar geant_cost_network.client[18] 	hdistance[18] 	2.8563200664001
scalar geant_cost_network.client[18] 	downloads[18] 	178313
scalar geant_cost_network.client[18] 	avg_time[18] 	0.010211304184
scalar geant_cost_network.client[18] 	interests_sent[18] 	180608
scalar geant_cost_network.client[19] 	hdistance[19] 	3.7939083773917
scalar geant_cost_network.client[19] 	downloads[19] 	177227
scalar geant_cost_network.client[19] 	avg_time[19] 	0.011934601424
scalar geant_cost_network.client[19] 	interests_sent[19] 	179918
scalar geant_cost_network.client[20] 	hdistance[20] 	3.7834270487546
scalar geant_cost_network.client[20] 	downloads[20] 	177132
scalar geant_cost_network.client[20] 	avg_time[20] 	0.01311349829
scalar geant_cost_network.client[20] 	interests_sent[20] 	179788
scalar geant_cost_network.client[21] 	hdistance[21] 	3.3381450150377
scalar geant_cost_network.client[21] 	downloads[21] 	177554
scalar geant_cost_network.client[21] 	avg_time[21] 	0.01455561208
scalar geant_cost_network.client[21] 	interests_sent[21] 	179978
