version 2
run General-1-20150721-11:47:07-18051
attr C 1e4
attr D lce
attr F spr
attr R lru_repr
attr a 1
attr brates 0.3_0.7_1.5_2.5_3.5
attr configname General
attr ctlg 1e6
attr datetime 20150721-11:47:07
attr experiment General
attr inifile omnetpp.ini
attr iterationvars "$net=barabasi_100nodes, $rep=0, $lambda=100, $a=1, $ctlg=1e6, $brates=0.3_0.7_1.5_2.5_3.5, $F=spr, $ttl=1000, $D=lce, $R=lru_repr, $C=1e4, $window=60, $variance=0.05, $mytime=18000"
attr iterationvars2 "$net=barabasi_100nodes, $rep=0, $lambda=100, $a=1, $ctlg=1e6, $brates=0.3_0.7_1.5_2.5_3.5, $F=spr, $ttl=1000, $D=lce, $R=lru_repr, $C=1e4, $window=60, $variance=0.05, $mytime=18000, $repetition=0"
attr lambda 100
attr measurement "$net=barabasi_100nodes, $rep=0, $lambda=100, $a=1, $ctlg=1e6, $brates=0.3_0.7_1.5_2.5_3.5, $F=spr, $ttl=1000, $D=lce, $R=lru_repr, $C=1e4, $window=60, $variance=0.05, $mytime=18000"
attr mytime 18000
attr net barabasi_100nodes
attr network networks.${net=barabasi_100nodes}_network
attr processid 18051
attr rep 0
attr repetition 0
attr replication #0
attr resultdir results
attr runnumber 1
attr seedset 0
attr ttl 1000
attr variance 0.05
attr window 60

scalar . 	C 	1e4
scalar . 	a 	1
scalar . 	ctlg 	1e6
scalar . 	lambda 	100
scalar . 	mytime 	18000
scalar . 	rep 	0
scalar . 	ttl 	1000
scalar . 	variance 	0.05
scalar . 	window 	60
scalar barabasi_100nodes_network.content_distribution 	repo-0 	37
scalar barabasi_100nodes_network.content_distribution 	repo-1 	12
scalar barabasi_100nodes_network.content_distribution 	repo-2 	72
scalar barabasi_100nodes_network.content_distribution 	repo-3 	9
scalar barabasi_100nodes_network.content_distribution 	repo-4 	75
scalar barabasi_100nodes_network.content_distribution 	repo-5 	5
scalar barabasi_100nodes_network.content_distribution 	repo-6 	79
scalar barabasi_100nodes_network.content_distribution 	repo-7 	64
scalar barabasi_100nodes_network.content_distribution 	repo-8 	16
scalar barabasi_100nodes_network.content_distribution 	repo-9 	1
scalar barabasi_100nodes_network.content_distribution 	repo-10 	76
scalar barabasi_100nodes_network.content_distribution 	repo-11 	71
scalar barabasi_100nodes_network.content_distribution 	repo-12 	6
scalar barabasi_100nodes_network.content_distribution 	repo-13 	25
scalar barabasi_100nodes_network.content_distribution 	repo-14 	50
scalar barabasi_100nodes_network.content_distribution 	repo-15 	20
scalar barabasi_100nodes_network.content_distribution 	repo-16 	18
scalar barabasi_100nodes_network.content_distribution 	repo-17 	84
scalar barabasi_100nodes_network.content_distribution 	repo-18 	11
scalar barabasi_100nodes_network.content_distribution 	repo-19 	28
scalar barabasi_100nodes_network.content_distribution 	repo-20 	29
scalar barabasi_100nodes_network.content_distribution 	repo-21 	14
scalar barabasi_100nodes_network.content_distribution 	repo-22 	68
scalar barabasi_100nodes_network.content_distribution 	repo-23 	87
scalar barabasi_100nodes_network.content_distribution 	repo-24 	94
scalar barabasi_100nodes_network.content_distribution 	repo-25 	96
scalar barabasi_100nodes_network.content_distribution 	repo-26 	86
scalar barabasi_100nodes_network.content_distribution 	repo-27 	13
scalar barabasi_100nodes_network.content_distribution 	repo-28 	7
scalar barabasi_100nodes_network.content_distribution 	repo-29 	63
scalar barabasi_100nodes_network.content_distribution 	repo-30 	61
scalar barabasi_100nodes_network.content_distribution 	repo-31 	22
scalar barabasi_100nodes_network.content_distribution 	repo-32 	57
scalar barabasi_100nodes_network.content_distribution 	repo-33 	0
scalar barabasi_100nodes_network.content_distribution 	repo-34 	60
scalar barabasi_100nodes_network.content_distribution 	repo-35 	81
scalar barabasi_100nodes_network.content_distribution 	repo-36 	8
scalar barabasi_100nodes_network.content_distribution 	repo-37 	88
scalar barabasi_100nodes_network.content_distribution 	repo-38 	47
scalar barabasi_100nodes_network.content_distribution 	repo-39 	30
scalar barabasi_100nodes_network.content_distribution 	repo-40 	3
scalar barabasi_100nodes_network.content_distribution 	repo-41 	70
scalar barabasi_100nodes_network.content_distribution 	repo-42 	21
scalar barabasi_100nodes_network.content_distribution 	repo-43 	49
scalar barabasi_100nodes_network.content_distribution 	repo-44 	24
scalar barabasi_100nodes_network.content_distribution 	repo-45 	43
scalar barabasi_100nodes_network.content_distribution 	repo-46 	26
scalar barabasi_100nodes_network.content_distribution 	repo-47 	52
scalar barabasi_100nodes_network.content_distribution 	repo-48 	80
scalar barabasi_100nodes_network.content_distribution 	repo-49 	41
scalar barabasi_100nodes_network.content_distribution 	repo-50 	82
scalar barabasi_100nodes_network.content_distribution 	repo-51 	15
scalar barabasi_100nodes_network.content_distribution 	repo-52 	98
scalar barabasi_100nodes_network.content_distribution 	repo-53 	67
scalar barabasi_100nodes_network.content_distribution 	repo-54 	23
scalar barabasi_100nodes_network.content_distribution 	repo-55 	27
scalar barabasi_100nodes_network.content_distribution 	repo-56 	83
scalar barabasi_100nodes_network.content_distribution 	repo-57 	38
scalar barabasi_100nodes_network.content_distribution 	repo-58 	32
scalar barabasi_100nodes_network.content_distribution 	repo-59 	34
scalar barabasi_100nodes_network.content_distribution 	repo-60 	10
scalar barabasi_100nodes_network.content_distribution 	repo-61 	92
scalar barabasi_100nodes_network.content_distribution 	repo-62 	74
scalar barabasi_100nodes_network.content_distribution 	repo-63 	62
scalar barabasi_100nodes_network.content_distribution 	repo-64 	46
scalar barabasi_100nodes_network.content_distribution 	repo-65 	55
scalar barabasi_100nodes_network.content_distribution 	repo-66 	65
scalar barabasi_100nodes_network.content_distribution 	repo-67 	77
scalar barabasi_100nodes_network.content_distribution 	repo-68 	85
scalar barabasi_100nodes_network.content_distribution 	repo-69 	2
scalar barabasi_100nodes_network.content_distribution 	repo-70 	91
scalar barabasi_100nodes_network.content_distribution 	repo-71 	36
scalar barabasi_100nodes_network.content_distribution 	repo-72 	45
scalar barabasi_100nodes_network.content_distribution 	repo-73 	97
scalar barabasi_100nodes_network.content_distribution 	repo-74 	54
scalar barabasi_100nodes_network.content_distribution 	repo-75 	66
scalar barabasi_100nodes_network.content_distribution 	repo-76 	48
scalar barabasi_100nodes_network.content_distribution 	repo-77 	17
scalar barabasi_100nodes_network.content_distribution 	repo-78 	42
scalar barabasi_100nodes_network.content_distribution 	repo-79 	53
scalar barabasi_100nodes_network.content_distribution 	repo-80 	56
scalar barabasi_100nodes_network.content_distribution 	repo-81 	89
scalar barabasi_100nodes_network.content_distribution 	repo-82 	59
scalar barabasi_100nodes_network.content_distribution 	repo-83 	69
scalar barabasi_100nodes_network.content_distribution 	repo-84 	40
scalar barabasi_100nodes_network.content_distribution 	repo-85 	78
scalar barabasi_100nodes_network.content_distribution 	repo-86 	35
scalar barabasi_100nodes_network.content_distribution 	repo-87 	93
scalar barabasi_100nodes_network.content_distribution 	repo-88 	33
scalar barabasi_100nodes_network.content_distribution 	repo-89 	31
scalar barabasi_100nodes_network.content_distribution 	repo-90 	99
scalar barabasi_100nodes_network.content_distribution 	repo-91 	44
scalar barabasi_100nodes_network.content_distribution 	repo-92 	19
scalar barabasi_100nodes_network.content_distribution 	repo-93 	39
scalar barabasi_100nodes_network.content_distribution 	repo-94 	51
scalar barabasi_100nodes_network.content_distribution 	repo-95 	58
scalar barabasi_100nodes_network.content_distribution 	repo-96 	73
scalar barabasi_100nodes_network.content_distribution 	repo-97 	95
scalar barabasi_100nodes_network.content_distribution 	repo-98 	4
scalar barabasi_100nodes_network.content_distribution 	repo-99 	90
scalar barabasi_100nodes_network.content_distribution 	client-0 	27
scalar barabasi_100nodes_network.content_distribution 	client-1 	60
scalar barabasi_100nodes_network.content_distribution 	client-2 	12
scalar barabasi_100nodes_network.content_distribution 	client-3 	17
scalar barabasi_100nodes_network.content_distribution 	client-4 	71
scalar barabasi_100nodes_network.content_distribution 	client-5 	91
scalar barabasi_100nodes_network.content_distribution 	client-6 	7
scalar barabasi_100nodes_network.content_distribution 	client-7 	83
scalar barabasi_100nodes_network.content_distribution 	client-8 	56
scalar barabasi_100nodes_network.content_distribution 	client-9 	51
scalar barabasi_100nodes_network.content_distribution 	client-10 	32
scalar barabasi_100nodes_network.content_distribution 	client-11 	76
scalar barabasi_100nodes_network.content_distribution 	client-12 	62
scalar barabasi_100nodes_network.content_distribution 	client-13 	96
scalar barabasi_100nodes_network.content_distribution 	client-14 	30
scalar barabasi_100nodes_network.content_distribution 	client-15 	22
scalar barabasi_100nodes_network.content_distribution 	client-16 	5
scalar barabasi_100nodes_network.content_distribution 	client-17 	95
scalar barabasi_100nodes_network.content_distribution 	client-18 	18
scalar barabasi_100nodes_network.content_distribution 	client-19 	93
scalar barabasi_100nodes_network.content_distribution 	client-20 	29
scalar barabasi_100nodes_network.content_distribution 	client-21 	52
scalar barabasi_100nodes_network.content_distribution 	client-22 	31
scalar barabasi_100nodes_network.content_distribution 	client-23 	49
scalar barabasi_100nodes_network.content_distribution 	client-24 	98
scalar barabasi_100nodes_network.content_distribution 	client-25 	45
scalar barabasi_100nodes_network.content_distribution 	client-26 	86
scalar barabasi_100nodes_network.content_distribution 	client-27 	15
scalar barabasi_100nodes_network.content_distribution 	client-28 	48
scalar barabasi_100nodes_network.content_distribution 	client-29 	28
scalar barabasi_100nodes_network.content_distribution 	client-30 	43
scalar barabasi_100nodes_network.content_distribution 	client-31 	19
scalar barabasi_100nodes_network.content_distribution 	client-32 	79
scalar barabasi_100nodes_network.content_distribution 	client-33 	70
scalar barabasi_100nodes_network.content_distribution 	client-34 	88
scalar barabasi_100nodes_network.content_distribution 	client-35 	11
scalar barabasi_100nodes_network.content_distribution 	client-36 	65
scalar barabasi_100nodes_network.content_distribution 	client-37 	63
scalar barabasi_100nodes_network.content_distribution 	client-38 	42
scalar barabasi_100nodes_network.content_distribution 	client-39 	82
scalar barabasi_100nodes_network.content_distribution 	client-40 	40
scalar barabasi_100nodes_network.content_distribution 	client-41 	44
scalar barabasi_100nodes_network.content_distribution 	client-42 	16
scalar barabasi_100nodes_network.content_distribution 	client-43 	0
scalar barabasi_100nodes_network.content_distribution 	client-44 	97
scalar barabasi_100nodes_network.content_distribution 	client-45 	14
scalar barabasi_100nodes_network.content_distribution 	client-46 	36
scalar barabasi_100nodes_network.content_distribution 	client-47 	26
scalar barabasi_100nodes_network.content_distribution 	client-48 	1
scalar barabasi_100nodes_network.content_distribution 	client-49 	34
scalar barabasi_100nodes_network.content_distribution 	client-50 	94
scalar barabasi_100nodes_network.content_distribution 	client-51 	21
scalar barabasi_100nodes_network.content_distribution 	client-52 	68
scalar barabasi_100nodes_network.content_distribution 	client-53 	67
scalar barabasi_100nodes_network.content_distribution 	client-54 	64
scalar barabasi_100nodes_network.content_distribution 	client-55 	89
scalar barabasi_100nodes_network.content_distribution 	client-56 	33
scalar barabasi_100nodes_network.content_distribution 	client-57 	58
scalar barabasi_100nodes_network.content_distribution 	client-58 	4
scalar barabasi_100nodes_network.content_distribution 	client-59 	61
scalar barabasi_100nodes_network.content_distribution 	client-60 	50
scalar barabasi_100nodes_network.content_distribution 	client-61 	92
scalar barabasi_100nodes_network.content_distribution 	client-62 	25
scalar barabasi_100nodes_network.content_distribution 	client-63 	13
scalar barabasi_100nodes_network.content_distribution 	client-64 	38
scalar barabasi_100nodes_network.content_distribution 	client-65 	85
scalar barabasi_100nodes_network.content_distribution 	client-66 	84
scalar barabasi_100nodes_network.content_distribution 	client-67 	75
scalar barabasi_100nodes_network.content_distribution 	client-68 	99
scalar barabasi_100nodes_network.content_distribution 	client-69 	66
scalar barabasi_100nodes_network.content_distribution 	client-70 	74
scalar barabasi_100nodes_network.content_distribution 	client-71 	37
scalar barabasi_100nodes_network.content_distribution 	client-72 	72
scalar barabasi_100nodes_network.content_distribution 	client-73 	24
scalar barabasi_100nodes_network.content_distribution 	client-74 	41
scalar barabasi_100nodes_network.content_distribution 	client-75 	46
scalar barabasi_100nodes_network.content_distribution 	client-76 	35
scalar barabasi_100nodes_network.content_distribution 	client-77 	57
scalar barabasi_100nodes_network.content_distribution 	client-78 	6
scalar barabasi_100nodes_network.content_distribution 	client-79 	3
scalar barabasi_100nodes_network.content_distribution 	client-80 	20
scalar barabasi_100nodes_network.content_distribution 	client-81 	9
scalar barabasi_100nodes_network.content_distribution 	client-82 	90
scalar barabasi_100nodes_network.content_distribution 	client-83 	69
scalar barabasi_100nodes_network.content_distribution 	client-84 	23
scalar barabasi_100nodes_network.content_distribution 	client-85 	39
scalar barabasi_100nodes_network.content_distribution 	client-86 	87
scalar barabasi_100nodes_network.content_distribution 	client-87 	10
scalar barabasi_100nodes_network.content_distribution 	client-88 	78
scalar barabasi_100nodes_network.content_distribution 	client-89 	59
scalar barabasi_100nodes_network.content_distribution 	client-90 	53
scalar barabasi_100nodes_network.content_distribution 	client-91 	77
scalar barabasi_100nodes_network.content_distribution 	client-92 	55
scalar barabasi_100nodes_network.content_distribution 	client-93 	80
scalar barabasi_100nodes_network.content_distribution 	client-94 	47
scalar barabasi_100nodes_network.content_distribution 	client-95 	81
scalar barabasi_100nodes_network.content_distribution 	client-96 	54
scalar barabasi_100nodes_network.content_distribution 	client-97 	8
scalar barabasi_100nodes_network.content_distribution 	client-98 	73
scalar barabasi_100nodes_network.content_distribution 	client-99 	2
scalar barabasi_100nodes_network.content_distribution 	repo-0_card 	250050
scalar barabasi_100nodes_network.content_distribution 	repo-0_price 	0
scalar barabasi_100nodes_network.content_distribution 	repo-1_card 	250103
scalar barabasi_100nodes_network.content_distribution 	repo-1_price 	0
scalar barabasi_100nodes_network.content_distribution 	repo-2_card 	249952
scalar barabasi_100nodes_network.content_distribution 	repo-2_price 	0
scalar barabasi_100nodes_network.content_distribution 	repo-3_card 	249895
scalar barabasi_100nodes_network.content_distribution 	repo-3_price 	0
scalar barabasi_100nodes_network.content_distribution 	repo-4_card 	0
scalar barabasi_100nodes_network.content_distribution 	repo-4_price 	0
scalar barabasi_100nodes_network.content_distribution 	repo-5_card 	0
scalar barabasi_100nodes_network.content_distribution 	repo-5_price 	0
scalar barabasi_100nodes_network.content_distribution 	repo-6_card 	0
scalar barabasi_100nodes_network.content_distribution 	repo-6_price 	0
scalar barabasi_100nodes_network.content_distribution 	repo-7_card 	0
scalar barabasi_100nodes_network.content_distribution 	repo-7_price 	0
scalar barabasi_100nodes_network.content_distribution 	repo-8_card 	0
scalar barabasi_100nodes_network.content_distribution 	repo-8_price 	0
scalar barabasi_100nodes_network.content_distribution 	repo-9_card 	0
scalar barabasi_100nodes_network.content_distribution 	repo-9_price 	0
scalar barabasi_100nodes_network.content_distribution 	repo-10_card 	0
scalar barabasi_100nodes_network.content_distribution 	repo-10_price 	0
scalar barabasi_100nodes_network.content_distribution 	repo-11_card 	0
scalar barabasi_100nodes_network.content_distribution 	repo-11_price 	0
scalar barabasi_100nodes_network.content_distribution 	repo-12_card 	0
scalar barabasi_100nodes_network.content_distribution 	repo-12_price 	0
scalar barabasi_100nodes_network.content_distribution 	repo-13_card 	0
scalar barabasi_100nodes_network.content_distribution 	repo-13_price 	0
scalar barabasi_100nodes_network.content_distribution 	repo-14_card 	0
scalar barabasi_100nodes_network.content_distribution 	repo-14_price 	0
scalar barabasi_100nodes_network.content_distribution 	repo-15_card 	0
scalar barabasi_100nodes_network.content_distribution 	repo-15_price 	0
scalar barabasi_100nodes_network.content_distribution 	repo-16_card 	0
scalar barabasi_100nodes_network.content_distribution 	repo-16_price 	0
scalar barabasi_100nodes_network.content_distribution 	repo-17_card 	0
scalar barabasi_100nodes_network.content_distribution 	repo-17_price 	0
scalar barabasi_100nodes_network.content_distribution 	repo-18_card 	0
scalar barabasi_100nodes_network.content_distribution 	repo-18_price 	0
scalar barabasi_100nodes_network.content_distribution 	repo-19_card 	0
scalar barabasi_100nodes_network.content_distribution 	repo-19_price 	0
scalar barabasi_100nodes_network.content_distribution 	repo-20_card 	0
scalar barabasi_100nodes_network.content_distribution 	repo-20_price 	0
scalar barabasi_100nodes_network.content_distribution 	repo-21_card 	0
scalar barabasi_100nodes_network.content_distribution 	repo-21_price 	0
scalar barabasi_100nodes_network.content_distribution 	repo-22_card 	0
scalar barabasi_100nodes_network.content_distribution 	repo-22_price 	0
scalar barabasi_100nodes_network.content_distribution 	repo-23_card 	0
scalar barabasi_100nodes_network.content_distribution 	repo-23_price 	0
scalar barabasi_100nodes_network.content_distribution 	repo-24_card 	0
scalar barabasi_100nodes_network.content_distribution 	repo-24_price 	0
scalar barabasi_100nodes_network.content_distribution 	repo-25_card 	0
scalar barabasi_100nodes_network.content_distribution 	repo-25_price 	0
scalar barabasi_100nodes_network.content_distribution 	repo-26_card 	0
scalar barabasi_100nodes_network.content_distribution 	repo-26_price 	0
scalar barabasi_100nodes_network.content_distribution 	repo-27_card 	0
scalar barabasi_100nodes_network.content_distribution 	repo-27_price 	0
scalar barabasi_100nodes_network.content_distribution 	repo-28_card 	0
scalar barabasi_100nodes_network.content_distribution 	repo-28_price 	0
scalar barabasi_100nodes_network.content_distribution 	repo-29_card 	0
scalar barabasi_100nodes_network.content_distribution 	repo-29_price 	0
scalar barabasi_100nodes_network.content_distribution 	repo-30_card 	0
scalar barabasi_100nodes_network.content_distribution 	repo-30_price 	0
scalar barabasi_100nodes_network.content_distribution 	repo-31_card 	0
scalar barabasi_100nodes_network.content_distribution 	repo-31_price 	0
scalar barabasi_100nodes_network.content_distribution 	repo-32_card 	0
scalar barabasi_100nodes_network.content_distribution 	repo-32_price 	0
scalar barabasi_100nodes_network.content_distribution 	repo-33_card 	0
scalar barabasi_100nodes_network.content_distribution 	repo-33_price 	0
scalar barabasi_100nodes_network.content_distribution 	repo-34_card 	0
scalar barabasi_100nodes_network.content_distribution 	repo-34_price 	0
scalar barabasi_100nodes_network.content_distribution 	repo-35_card 	0
scalar barabasi_100nodes_network.content_distribution 	repo-35_price 	0
scalar barabasi_100nodes_network.content_distribution 	repo-36_card 	0
scalar barabasi_100nodes_network.content_distribution 	repo-36_price 	0
scalar barabasi_100nodes_network.content_distribution 	repo-37_card 	0
scalar barabasi_100nodes_network.content_distribution 	repo-37_price 	0
scalar barabasi_100nodes_network.content_distribution 	repo-38_card 	0
scalar barabasi_100nodes_network.content_distribution 	repo-38_price 	0
scalar barabasi_100nodes_network.content_distribution 	repo-39_card 	0
scalar barabasi_100nodes_network.content_distribution 	repo-39_price 	0
scalar barabasi_100nodes_network.content_distribution 	repo-40_card 	0
scalar barabasi_100nodes_network.content_distribution 	repo-40_price 	0
scalar barabasi_100nodes_network.content_distribution 	repo-41_card 	0
scalar barabasi_100nodes_network.content_distribution 	repo-41_price 	0
scalar barabasi_100nodes_network.content_distribution 	repo-42_card 	0
scalar barabasi_100nodes_network.content_distribution 	repo-42_price 	0
scalar barabasi_100nodes_network.content_distribution 	repo-43_card 	0
scalar barabasi_100nodes_network.content_distribution 	repo-43_price 	0
scalar barabasi_100nodes_network.content_distribution 	repo-44_card 	0
scalar barabasi_100nodes_network.content_distribution 	repo-44_price 	0
scalar barabasi_100nodes_network.content_distribution 	repo-45_card 	0
scalar barabasi_100nodes_network.content_distribution 	repo-45_price 	0
scalar barabasi_100nodes_network.content_distribution 	repo-46_card 	0
scalar barabasi_100nodes_network.content_distribution 	repo-46_price 	0
scalar barabasi_100nodes_network.content_distribution 	repo-47_card 	0
scalar barabasi_100nodes_network.content_distribution 	repo-47_price 	0
scalar barabasi_100nodes_network.content_distribution 	repo-48_card 	0
scalar barabasi_100nodes_network.content_distribution 	repo-48_price 	0
scalar barabasi_100nodes_network.content_distribution 	repo-49_card 	0
scalar barabasi_100nodes_network.content_distribution 	repo-49_price 	0
scalar barabasi_100nodes_network.content_distribution 	repo-50_card 	0
scalar barabasi_100nodes_network.content_distribution 	repo-50_price 	0
scalar barabasi_100nodes_network.content_distribution 	repo-51_card 	0
scalar barabasi_100nodes_network.content_distribution 	repo-51_price 	0
scalar barabasi_100nodes_network.content_distribution 	repo-52_card 	0
scalar barabasi_100nodes_network.content_distribution 	repo-52_price 	0
scalar barabasi_100nodes_network.content_distribution 	repo-53_card 	0
scalar barabasi_100nodes_network.content_distribution 	repo-53_price 	0
scalar barabasi_100nodes_network.content_distribution 	repo-54_card 	0
scalar barabasi_100nodes_network.content_distribution 	repo-54_price 	0
scalar barabasi_100nodes_network.content_distribution 	repo-55_card 	0
scalar barabasi_100nodes_network.content_distribution 	repo-55_price 	0
scalar barabasi_100nodes_network.content_distribution 	repo-56_card 	0
scalar barabasi_100nodes_network.content_distribution 	repo-56_price 	0
scalar barabasi_100nodes_network.content_distribution 	repo-57_card 	0
scalar barabasi_100nodes_network.content_distribution 	repo-57_price 	0
scalar barabasi_100nodes_network.content_distribution 	repo-58_card 	0
scalar barabasi_100nodes_network.content_distribution 	repo-58_price 	0
scalar barabasi_100nodes_network.content_distribution 	repo-59_card 	0
scalar barabasi_100nodes_network.content_distribution 	repo-59_price 	0
scalar barabasi_100nodes_network.content_distribution 	repo-60_card 	0
scalar barabasi_100nodes_network.content_distribution 	repo-60_price 	0
scalar barabasi_100nodes_network.content_distribution 	repo-61_card 	0
scalar barabasi_100nodes_network.content_distribution 	repo-61_price 	0
scalar barabasi_100nodes_network.content_distribution 	repo-62_card 	0
scalar barabasi_100nodes_network.content_distribution 	repo-62_price 	0
scalar barabasi_100nodes_network.content_distribution 	repo-63_card 	0
scalar barabasi_100nodes_network.content_distribution 	repo-63_price 	0
scalar barabasi_100nodes_network.content_distribution 	repo-64_card 	0
scalar barabasi_100nodes_network.content_distribution 	repo-64_price 	0
scalar barabasi_100nodes_network.content_distribution 	repo-65_card 	0
scalar barabasi_100nodes_network.content_distribution 	repo-65_price 	0
scalar barabasi_100nodes_network.content_distribution 	repo-66_card 	0
scalar barabasi_100nodes_network.content_distribution 	repo-66_price 	0
scalar barabasi_100nodes_network.content_distribution 	repo-67_card 	0
scalar barabasi_100nodes_network.content_distribution 	repo-67_price 	0
scalar barabasi_100nodes_network.content_distribution 	repo-68_card 	0
scalar barabasi_100nodes_network.content_distribution 	repo-68_price 	0
scalar barabasi_100nodes_network.content_distribution 	repo-69_card 	0
scalar barabasi_100nodes_network.content_distribution 	repo-69_price 	0
scalar barabasi_100nodes_network.content_distribution 	repo-70_card 	0
scalar barabasi_100nodes_network.content_distribution 	repo-70_price 	0
scalar barabasi_100nodes_network.content_distribution 	repo-71_card 	0
scalar barabasi_100nodes_network.content_distribution 	repo-71_price 	0
scalar barabasi_100nodes_network.content_distribution 	repo-72_card 	0
scalar barabasi_100nodes_network.content_distribution 	repo-72_price 	0
scalar barabasi_100nodes_network.content_distribution 	repo-73_card 	0
scalar barabasi_100nodes_network.content_distribution 	repo-73_price 	0
scalar barabasi_100nodes_network.content_distribution 	repo-74_card 	0
scalar barabasi_100nodes_network.content_distribution 	repo-74_price 	0
scalar barabasi_100nodes_network.content_distribution 	repo-75_card 	0
scalar barabasi_100nodes_network.content_distribution 	repo-75_price 	0
scalar barabasi_100nodes_network.content_distribution 	repo-76_card 	0
scalar barabasi_100nodes_network.content_distribution 	repo-76_price 	0
scalar barabasi_100nodes_network.content_distribution 	repo-77_card 	0
scalar barabasi_100nodes_network.content_distribution 	repo-77_price 	0
scalar barabasi_100nodes_network.content_distribution 	repo-78_card 	0
scalar barabasi_100nodes_network.content_distribution 	repo-78_price 	0
scalar barabasi_100nodes_network.content_distribution 	repo-79_card 	0
scalar barabasi_100nodes_network.content_distribution 	repo-79_price 	0
scalar barabasi_100nodes_network.content_distribution 	repo-80_card 	0
scalar barabasi_100nodes_network.content_distribution 	repo-80_price 	0
scalar barabasi_100nodes_network.content_distribution 	repo-81_card 	0
scalar barabasi_100nodes_network.content_distribution 	repo-81_price 	0
scalar barabasi_100nodes_network.content_distribution 	repo-82_card 	0
scalar barabasi_100nodes_network.content_distribution 	repo-82_price 	0
scalar barabasi_100nodes_network.content_distribution 	repo-83_card 	0
scalar barabasi_100nodes_network.content_distribution 	repo-83_price 	0
scalar barabasi_100nodes_network.content_distribution 	repo-84_card 	0
scalar barabasi_100nodes_network.content_distribution 	repo-84_price 	0
scalar barabasi_100nodes_network.content_distribution 	repo-85_card 	0
scalar barabasi_100nodes_network.content_distribution 	repo-85_price 	0
scalar barabasi_100nodes_network.content_distribution 	repo-86_card 	0
scalar barabasi_100nodes_network.content_distribution 	repo-86_price 	0
scalar barabasi_100nodes_network.content_distribution 	repo-87_card 	0
scalar barabasi_100nodes_network.content_distribution 	repo-87_price 	0
scalar barabasi_100nodes_network.content_distribution 	repo-88_card 	0
scalar barabasi_100nodes_network.content_distribution 	repo-88_price 	0
scalar barabasi_100nodes_network.content_distribution 	repo-89_card 	0
scalar barabasi_100nodes_network.content_distribution 	repo-89_price 	0
scalar barabasi_100nodes_network.content_distribution 	repo-90_card 	0
scalar barabasi_100nodes_network.content_distribution 	repo-90_price 	0
scalar barabasi_100nodes_network.content_distribution 	repo-91_card 	0
scalar barabasi_100nodes_network.content_distribution 	repo-91_price 	0
scalar barabasi_100nodes_network.content_distribution 	repo-92_card 	0
scalar barabasi_100nodes_network.content_distribution 	repo-92_price 	0
scalar barabasi_100nodes_network.content_distribution 	repo-93_card 	0
scalar barabasi_100nodes_network.content_distribution 	repo-93_price 	0
scalar barabasi_100nodes_network.content_distribution 	repo-94_card 	0
scalar barabasi_100nodes_network.content_distribution 	repo-94_price 	0
scalar barabasi_100nodes_network.content_distribution 	repo-95_card 	0
scalar barabasi_100nodes_network.content_distribution 	repo-95_price 	0
scalar barabasi_100nodes_network.content_distribution 	repo-96_card 	0
scalar barabasi_100nodes_network.content_distribution 	repo-96_price 	0
scalar barabasi_100nodes_network.content_distribution 	repo-97_card 	0
scalar barabasi_100nodes_network.content_distribution 	repo-97_price 	0
scalar barabasi_100nodes_network.content_distribution 	repo-98_card 	0
scalar barabasi_100nodes_network.content_distribution 	repo-98_price 	0
scalar barabasi_100nodes_network.content_distribution 	repo-99_card 	0
scalar barabasi_100nodes_network.content_distribution 	repo-99_price 	0
scalar barabasi_100nodes_network.statistics 	stabilization_time 	36060
scalar barabasi_100nodes_network.statistics 	p_hit 	0.32402244665029
scalar barabasi_100nodes_network.statistics 	interests 	4526360.89
scalar barabasi_100nodes_network.statistics 	data 	2391309.25
scalar barabasi_100nodes_network.statistics 	hdistance 	1.2319576003476
scalar barabasi_100nodes_network.statistics 	avg_time 	0
scalar barabasi_100nodes_network.statistics 	downloads 	180001580
scalar barabasi_100nodes_network.statistics 	total_cost 	0
scalar barabasi_100nodes_network.statistics 	total_replicas 	1000000
scalar barabasi_100nodes_network.statistics 	"representations_downloaded 0.319666:0.0332619:0.0242764:0.0233275:0.599468:" 	0
scalar barabasi_100nodes_network.statistics 	"slots_per_representation 100:233:500:833:1167:" 	0
scalar barabasi_100nodes_network.statistics 	inner_hit 	0.62866486505285
scalar barabasi_100nodes_network.statistics 	execution_time 	15581
scalar barabasi_100nodes_network.node[0].core_layer 	interests[0] 	45823513
scalar barabasi_100nodes_network.node[0].core_layer 	repo_load[0] 	5327617
scalar barabasi_100nodes_network.node[0].core_layer 	data[0] 	33343610
scalar barabasi_100nodes_network.node[0].core_layer 	slots_sent[face$o[1]->client[0]] 	1024604980
scalar barabasi_100nodes_network.node[0].core_layer 	slots_sent[face$o[2]->node[1]] 	238312468
scalar barabasi_100nodes_network.node[0].core_layer 	slots_sent[face$o[3]->node[2]] 	6931765822
scalar barabasi_100nodes_network.node[0].core_layer 	slots_sent[face$o[4]->node[5]] 	740295172
scalar barabasi_100nodes_network.node[0].core_layer 	slots_sent[face$o[5]->node[10]] 	452635418
scalar barabasi_100nodes_network.node[0].core_layer 	slots_sent[face$o[6]->node[11]] 	238823591
scalar barabasi_100nodes_network.node[0].core_layer 	slots_sent[face$o[7]->node[15]] 	660666139
scalar barabasi_100nodes_network.node[0].core_layer 	slots_sent[face$o[8]->node[21]] 	607823379
scalar barabasi_100nodes_network.node[0].core_layer 	slots_sent[face$o[9]->node[22]] 	238947612
scalar barabasi_100nodes_network.node[0].core_layer 	slots_sent[face$o[10]->node[28]] 	238183399
scalar barabasi_100nodes_network.node[0].core_layer 	slots_sent[face$o[11]->node[37]] 	169504239
scalar barabasi_100nodes_network.node[0].core_layer 	slots_sent[face$o[12]->node[44]] 	239246872
scalar barabasi_100nodes_network.node[0].core_layer 	slots_sent[face$o[13]->node[58]] 	452300876
scalar barabasi_100nodes_network.node[0].core_layer 	slots_sent[face$o[14]->node[73]] 	323173700
scalar barabasi_100nodes_network.node[0].core_layer 	slots_sent[face$o[15]->node[74]] 	238055283
scalar barabasi_100nodes_network.node[0].core_layer 	slots_sent[face$o[16]->node[93]] 	238330315
scalar barabasi_100nodes_network.node[0].content_store 	p_hit[0] 	0.15608331905937
scalar barabasi_100nodes_network.node[0].content_store 	hits[0] 	7152286
scalar barabasi_100nodes_network.node[0].content_store 	misses[0] 	38671227
scalar barabasi_100nodes_network.node[0].content_store 	decision_yes[0] 	33343610
scalar barabasi_100nodes_network.node[0].content_store 	decision_no[0] 	5327617
scalar barabasi_100nodes_network.node[0].content_store 	decision_ratio[0] 	0.86223304991073
scalar barabasi_100nodes_network.node[0].content_store 	"representation_breakdown[0] 26994:5715:2613:1806:4137:" 	0
scalar barabasi_100nodes_network.node[0].proactive_component 	hdistance[0].proactive_component 	2.1827964333937
scalar barabasi_100nodes_network.node[0].proactive_component 	downloads[0].proactive_component 	13102876
scalar barabasi_100nodes_network.node[0].proactive_component 	avg_time[0].proactive_component 	0
scalar barabasi_100nodes_network.node[1].core_layer 	interests[1] 	1957834
scalar barabasi_100nodes_network.node[1].core_layer 	data[1] 	753612
scalar barabasi_100nodes_network.node[1].core_layer 	slots_sent[face$o[1]->client[1]] 	1406042030
scalar barabasi_100nodes_network.node[1].core_layer 	slots_sent[face$o[2]->node[0]] 	0
scalar barabasi_100nodes_network.node[1].content_store 	p_hit[1] 	0.61507870432325
scalar barabasi_100nodes_network.node[1].content_store 	hits[1] 	1204222
scalar barabasi_100nodes_network.node[1].content_store 	misses[1] 	753612
scalar barabasi_100nodes_network.node[1].content_store 	decision_yes[1] 	753612
scalar barabasi_100nodes_network.node[1].content_store 	decision_no[1] 	0
scalar barabasi_100nodes_network.node[1].content_store 	decision_ratio[1] 	1
scalar barabasi_100nodes_network.node[1].content_store 	"representation_breakdown[1] 25277:3734:1672:1399:5373:" 	0
scalar barabasi_100nodes_network.node[1].proactive_component 	hdistance[1].proactive_component 	2.3806593443724
scalar barabasi_100nodes_network.node[1].proactive_component 	downloads[1].proactive_component 	473531
scalar barabasi_100nodes_network.node[1].proactive_component 	avg_time[1].proactive_component 	0
scalar barabasi_100nodes_network.node[2].core_layer 	interests[2] 	57415986
scalar barabasi_100nodes_network.node[2].core_layer 	data[2] 	47640449
scalar barabasi_100nodes_network.node[2].core_layer 	slots_sent[face$o[1]->client[2]] 	1294543278
scalar barabasi_100nodes_network.node[2].core_layer 	slots_sent[face$o[2]->node[0]] 	1420727754
scalar barabasi_100nodes_network.node[2].core_layer 	slots_sent[face$o[3]->node[3]] 	481511235
scalar barabasi_100nodes_network.node[2].core_layer 	slots_sent[face$o[4]->node[4]] 	911791327
scalar barabasi_100nodes_network.node[2].core_layer 	slots_sent[face$o[5]->node[6]] 	256069661
scalar barabasi_100nodes_network.node[2].core_layer 	slots_sent[face$o[6]->node[7]] 	2527538791
scalar barabasi_100nodes_network.node[2].core_layer 	slots_sent[face$o[7]->node[8]] 	1418716880
scalar barabasi_100nodes_network.node[2].core_layer 	slots_sent[face$o[8]->node[13]] 	1062143794
scalar barabasi_100nodes_network.node[2].core_layer 	slots_sent[face$o[9]->node[16]] 	1529415977
scalar barabasi_100nodes_network.node[2].core_layer 	slots_sent[face$o[10]->node[18]] 	829184011
scalar barabasi_100nodes_network.node[2].core_layer 	slots_sent[face$o[11]->node[25]] 	483068750
scalar barabasi_100nodes_network.node[2].core_layer 	slots_sent[face$o[12]->node[26]] 	786384533
scalar barabasi_100nodes_network.node[2].core_layer 	slots_sent[face$o[13]->node[29]] 	257641073
scalar barabasi_100nodes_network.node[2].core_layer 	slots_sent[face$o[14]->node[32]] 	701142212
scalar barabasi_100nodes_network.node[2].core_layer 	slots_sent[face$o[15]->node[33]] 	257508997
scalar barabasi_100nodes_network.node[2].core_layer 	slots_sent[face$o[16]->node[34]] 	254990700
scalar barabasi_100nodes_network.node[2].core_layer 	slots_sent[face$o[17]->node[36]] 	482363630
scalar barabasi_100nodes_network.node[2].core_layer 	slots_sent[face$o[18]->node[41]] 	1484681217
scalar barabasi_100nodes_network.node[2].core_layer 	slots_sent[face$o[19]->node[45]] 	257378987
scalar barabasi_100nodes_network.node[2].core_layer 	slots_sent[face$o[20]->node[59]] 	256281077
scalar barabasi_100nodes_network.node[2].core_layer 	slots_sent[face$o[21]->node[62]] 	698311764
scalar barabasi_100nodes_network.node[2].core_layer 	slots_sent[face$o[22]->node[79]] 	256345275
scalar barabasi_100nodes_network.node[2].content_store 	p_hit[2] 	0.17025810546909
scalar barabasi_100nodes_network.node[2].content_store 	hits[2] 	9775537
scalar barabasi_100nodes_network.node[2].content_store 	misses[2] 	47640449
scalar barabasi_100nodes_network.node[2].content_store 	decision_yes[2] 	47640449
scalar barabasi_100nodes_network.node[2].content_store 	decision_no[2] 	0
scalar barabasi_100nodes_network.node[2].content_store 	decision_ratio[2] 	1
scalar barabasi_100nodes_network.node[2].content_store 	"representation_breakdown[2] 25176:5101:2549:1916:4364:" 	0
scalar barabasi_100nodes_network.node[2].proactive_component 	hdistance[2].proactive_component 	2.3549290383858
scalar barabasi_100nodes_network.node[2].proactive_component 	downloads[2].proactive_component 	16731722
scalar barabasi_100nodes_network.node[2].proactive_component 	avg_time[2].proactive_component 	0
scalar barabasi_100nodes_network.node[3].core_layer 	interests[3] 	2699925
scalar barabasi_100nodes_network.node[3].core_layer 	data[3] 	1420210
scalar barabasi_100nodes_network.node[3].core_layer 	slots_sent[face$o[1]->client[3]] 	1434221839
scalar barabasi_100nodes_network.node[3].core_layer 	slots_sent[face$o[2]->node[2]] 	0
scalar barabasi_100nodes_network.node[3].core_layer 	slots_sent[face$o[3]->node[52]] 	255840700
scalar barabasi_100nodes_network.node[3].content_store 	p_hit[3] 	0.47398168467643
scalar barabasi_100nodes_network.node[3].content_store 	hits[3] 	1279715
scalar barabasi_100nodes_network.node[3].content_store 	misses[3] 	1420210
scalar barabasi_100nodes_network.node[3].content_store 	decision_yes[3] 	1420210
scalar barabasi_100nodes_network.node[3].content_store 	decision_no[3] 	0
scalar barabasi_100nodes_network.node[3].content_store 	decision_ratio[3] 	1
scalar barabasi_100nodes_network.node[3].content_store 	"representation_breakdown[3] 22419:3220:1676:1367:5742:" 	0
scalar barabasi_100nodes_network.node[3].proactive_component 	hdistance[3].proactive_component 	2.8015616147178
scalar barabasi_100nodes_network.node[3].proactive_component 	downloads[3].proactive_component 	540082
scalar barabasi_100nodes_network.node[3].proactive_component 	avg_time[3].proactive_component 	0
scalar barabasi_100nodes_network.node[4].core_layer 	interests[4] 	5822632
scalar barabasi_100nodes_network.node[4].core_layer 	repo_load[4] 	1539159
scalar barabasi_100nodes_network.node[4].core_layer 	data[4] 	2915028
scalar barabasi_100nodes_network.node[4].core_layer 	slots_sent[face$o[1]->client[4]] 	1060851869
scalar barabasi_100nodes_network.node[4].core_layer 	slots_sent[face$o[2]->node[2]] 	0
scalar barabasi_100nodes_network.node[4].core_layer 	slots_sent[face$o[3]->node[27]] 	451414459
scalar barabasi_100nodes_network.node[4].core_layer 	slots_sent[face$o[4]->node[30]] 	451615235
scalar barabasi_100nodes_network.node[4].core_layer 	slots_sent[face$o[5]->node[85]] 	241157926
scalar barabasi_100nodes_network.node[4].content_store 	p_hit[4] 	0.23502172213528
scalar barabasi_100nodes_network.node[4].content_store 	hits[4] 	1368445
scalar barabasi_100nodes_network.node[4].content_store 	misses[4] 	4454187
scalar barabasi_100nodes_network.node[4].content_store 	decision_yes[4] 	2915028
scalar barabasi_100nodes_network.node[4].content_store 	decision_no[4] 	1539159
scalar barabasi_100nodes_network.node[4].content_store 	decision_ratio[4] 	0.65444670374189
scalar barabasi_100nodes_network.node[4].content_store 	"representation_breakdown[4] 24803:4195:1929:1540:5111:" 	0
scalar barabasi_100nodes_network.node[4].proactive_component 	hdistance[4].proactive_component 	3.0901605123087
scalar barabasi_100nodes_network.node[4].proactive_component 	downloads[4].proactive_component 	1202400
scalar barabasi_100nodes_network.node[4].proactive_component 	avg_time[4].proactive_component 	0
scalar barabasi_100nodes_network.node[5].core_layer 	interests[5] 	20445899
scalar barabasi_100nodes_network.node[5].core_layer 	data[5] 	16040984
scalar barabasi_100nodes_network.node[5].core_layer 	slots_sent[face$o[1]->client[5]] 	1207680955
scalar barabasi_100nodes_network.node[5].core_layer 	slots_sent[face$o[2]->node[0]] 	4213332160
scalar barabasi_100nodes_network.node[5].core_layer 	slots_sent[face$o[3]->node[9]] 	157992970
scalar barabasi_100nodes_network.node[5].core_layer 	slots_sent[face$o[4]->node[35]] 	450500267
scalar barabasi_100nodes_network.node[5].content_store 	p_hit[5] 	0.21544247088377
scalar barabasi_100nodes_network.node[5].content_store 	hits[5] 	4404915
scalar barabasi_100nodes_network.node[5].content_store 	misses[5] 	16040984
scalar barabasi_100nodes_network.node[5].content_store 	decision_yes[5] 	16040984
scalar barabasi_100nodes_network.node[5].content_store 	decision_no[5] 	0
scalar barabasi_100nodes_network.node[5].content_store 	decision_ratio[5] 	1
scalar barabasi_100nodes_network.node[5].content_store 	"representation_breakdown[5] 26804:6236:2772:1822:3969:" 	0
scalar barabasi_100nodes_network.node[5].proactive_component 	hdistance[5].proactive_component 	1.9977129388898
scalar barabasi_100nodes_network.node[5].proactive_component 	downloads[5].proactive_component 	7984920
scalar barabasi_100nodes_network.node[5].proactive_component 	avg_time[5].proactive_component 	0
scalar barabasi_100nodes_network.node[6].core_layer 	interests[6] 	1919297
scalar barabasi_100nodes_network.node[6].core_layer 	data[6] 	735360
scalar barabasi_100nodes_network.node[6].core_layer 	slots_sent[face$o[1]->client[6]] 	1451451815
scalar barabasi_100nodes_network.node[6].core_layer 	slots_sent[face$o[2]->node[2]] 	0
scalar barabasi_100nodes_network.node[6].content_store 	p_hit[6] 	0.61685971478098
scalar barabasi_100nodes_network.node[6].content_store 	hits[6] 	1183937
scalar barabasi_100nodes_network.node[6].content_store 	misses[6] 	735360
scalar barabasi_100nodes_network.node[6].content_store 	decision_yes[6] 	735360
scalar barabasi_100nodes_network.node[6].content_store 	decision_no[6] 	0
scalar barabasi_100nodes_network.node[6].content_store 	decision_ratio[6] 	1
scalar barabasi_100nodes_network.node[6].content_store 	"representation_breakdown[6] 21386:2895:1542:1409:5923:" 	0
scalar barabasi_100nodes_network.node[6].proactive_component 	hdistance[6].proactive_component 	2.8167207338696
scalar barabasi_100nodes_network.node[6].proactive_component 	downloads[6].proactive_component 	350798
scalar barabasi_100nodes_network.node[6].proactive_component 	avg_time[6].proactive_component 	0
scalar barabasi_100nodes_network.node[7].core_layer 	interests[7] 	10086304
scalar barabasi_100nodes_network.node[7].core_layer 	data[7] 	7984979
scalar barabasi_100nodes_network.node[7].core_layer 	slots_sent[face$o[1]->client[7]] 	1391224004
scalar barabasi_100nodes_network.node[7].core_layer 	slots_sent[face$o[2]->node[2]] 	0
scalar barabasi_100nodes_network.node[7].core_layer 	slots_sent[face$o[3]->node[23]] 	1427914377
scalar barabasi_100nodes_network.node[7].core_layer 	slots_sent[face$o[4]->node[31]] 	669456104
scalar barabasi_100nodes_network.node[7].core_layer 	slots_sent[face$o[5]->node[49]] 	259230698
scalar barabasi_100nodes_network.node[7].core_layer 	slots_sent[face$o[6]->node[90]] 	171684420
scalar barabasi_100nodes_network.node[7].content_store 	p_hit[7] 	0.20833449001735
scalar barabasi_100nodes_network.node[7].content_store 	hits[7] 	2101325
scalar barabasi_100nodes_network.node[7].content_store 	misses[7] 	7984979
scalar barabasi_100nodes_network.node[7].content_store 	decision_yes[7] 	7984979
scalar barabasi_100nodes_network.node[7].content_store 	decision_no[7] 	0
scalar barabasi_100nodes_network.node[7].content_store 	decision_ratio[7] 	1
scalar barabasi_100nodes_network.node[7].content_store 	"representation_breakdown[7] 24037:4239:2060:1722:4982:" 	0
scalar barabasi_100nodes_network.node[7].proactive_component 	hdistance[7].proactive_component 	2.6784447735999
scalar barabasi_100nodes_network.node[7].proactive_component 	downloads[7].proactive_component 	2084121
scalar barabasi_100nodes_network.node[7].proactive_component 	avg_time[7].proactive_component 	0
scalar barabasi_100nodes_network.node[8].core_layer 	interests[8] 	19675906
scalar barabasi_100nodes_network.node[8].core_layer 	data[8] 	15004388
scalar barabasi_100nodes_network.node[8].core_layer 	slots_sent[face$o[1]->client[8]] 	1323229240
scalar barabasi_100nodes_network.node[8].core_layer 	slots_sent[face$o[2]->node[2]] 	3166931595
scalar barabasi_100nodes_network.node[8].core_layer 	slots_sent[face$o[3]->node[12]] 	174855257
scalar barabasi_100nodes_network.node[8].core_layer 	slots_sent[face$o[4]->node[14]] 	256727764
scalar barabasi_100nodes_network.node[8].core_layer 	slots_sent[face$o[5]->node[17]] 	255991996
scalar barabasi_100nodes_network.node[8].core_layer 	slots_sent[face$o[6]->node[39]] 	417843173
scalar barabasi_100nodes_network.node[8].core_layer 	slots_sent[face$o[7]->node[61]] 	256424272
scalar barabasi_100nodes_network.node[8].core_layer 	slots_sent[face$o[8]->node[66]] 	256737211
scalar barabasi_100nodes_network.node[8].content_store 	p_hit[8] 	0.23742327291053
scalar barabasi_100nodes_network.node[8].content_store 	hits[8] 	4671518
scalar barabasi_100nodes_network.node[8].content_store 	misses[8] 	15004388
scalar barabasi_100nodes_network.node[8].content_store 	decision_yes[8] 	15004388
scalar barabasi_100nodes_network.node[8].content_store 	decision_no[8] 	0
scalar barabasi_100nodes_network.node[8].content_store 	decision_ratio[8] 	1
scalar barabasi_100nodes_network.node[8].content_store 	"representation_breakdown[8] 26051:5619:2508:1816:4275:" 	0
scalar barabasi_100nodes_network.node[8].proactive_component 	hdistance[8].proactive_component 	2.0300890720315
scalar barabasi_100nodes_network.node[8].proactive_component 	downloads[8].proactive_component 	7982865
scalar barabasi_100nodes_network.node[8].proactive_component 	avg_time[8].proactive_component 	0
scalar barabasi_100nodes_network.node[9].core_layer 	interests[9] 	15586712
scalar barabasi_100nodes_network.node[9].core_layer 	repo_load[9] 	14119748
scalar barabasi_100nodes_network.node[9].core_layer 	data[9] 	532470
scalar barabasi_100nodes_network.node[9].core_layer 	slots_sent[face$o[1]->client[9]] 	1102725354
scalar barabasi_100nodes_network.node[9].core_layer 	slots_sent[face$o[2]->node[5]] 	3916889772
scalar barabasi_100nodes_network.node[9].content_store 	p_hit[9] 	0.059954530500082
scalar barabasi_100nodes_network.node[9].content_store 	hits[9] 	934494
scalar barabasi_100nodes_network.node[9].content_store 	misses[9] 	14652218
scalar barabasi_100nodes_network.node[9].content_store 	decision_yes[9] 	532470
scalar barabasi_100nodes_network.node[9].content_store 	decision_no[9] 	14119748
scalar barabasi_100nodes_network.node[9].content_store 	decision_ratio[9] 	0.036340573147356
scalar barabasi_100nodes_network.node[9].content_store 	"representation_breakdown[9] 27817:3950:1883:1346:5060:" 	0
scalar barabasi_100nodes_network.node[9].proactive_component 	hdistance[9].proactive_component 	3.3093640625522
scalar barabasi_100nodes_network.node[9].proactive_component 	downloads[9].proactive_component 	388859
scalar barabasi_100nodes_network.node[9].proactive_component 	avg_time[9].proactive_component 	0
scalar barabasi_100nodes_network.node[10].core_layer 	interests[10] 	2772034
scalar barabasi_100nodes_network.node[10].core_layer 	data[10] 	1454696
scalar barabasi_100nodes_network.node[10].core_layer 	slots_sent[face$o[1]->client[10]] 	1385805429
scalar barabasi_100nodes_network.node[10].core_layer 	slots_sent[face$o[2]->node[0]] 	0
scalar barabasi_100nodes_network.node[10].core_layer 	slots_sent[face$o[3]->node[71]] 	237465438
scalar barabasi_100nodes_network.node[10].content_store 	p_hit[10] 	0.47522432986031
scalar barabasi_100nodes_network.node[10].content_store 	hits[10] 	1317338
scalar barabasi_100nodes_network.node[10].content_store 	misses[10] 	1454696
scalar barabasi_100nodes_network.node[10].content_store 	decision_yes[10] 	1454696
scalar barabasi_100nodes_network.node[10].content_store 	decision_no[10] 	0
scalar barabasi_100nodes_network.node[10].content_store 	decision_ratio[10] 	1
scalar barabasi_100nodes_network.node[10].content_store 	"representation_breakdown[10] 25788:3760:1777:1381:5292:" 	0
scalar barabasi_100nodes_network.node[10].proactive_component 	hdistance[10].proactive_component 	2.3655193245793
scalar barabasi_100nodes_network.node[10].proactive_component 	downloads[10].proactive_component 	731633
scalar barabasi_100nodes_network.node[10].proactive_component 	avg_time[10].proactive_component 	0
scalar barabasi_100nodes_network.node[11].core_layer 	interests[11] 	1958517
scalar barabasi_100nodes_network.node[11].core_layer 	data[11] 	754777
scalar barabasi_100nodes_network.node[11].core_layer 	slots_sent[face$o[1]->client[11]] 	1405930159
scalar barabasi_100nodes_network.node[11].core_layer 	slots_sent[face$o[2]->node[0]] 	0
scalar barabasi_100nodes_network.node[11].content_store 	p_hit[11] 	0.61461810134913
scalar barabasi_100nodes_network.node[11].content_store 	hits[11] 	1203740
scalar barabasi_100nodes_network.node[11].content_store 	misses[11] 	754777
scalar barabasi_100nodes_network.node[11].content_store 	decision_yes[11] 	754777
scalar barabasi_100nodes_network.node[11].content_store 	decision_no[11] 	0
scalar barabasi_100nodes_network.node[11].content_store 	decision_ratio[11] 	1
scalar barabasi_100nodes_network.node[11].content_store 	"representation_breakdown[11] 25534:3532:1793:1329:5389:" 	0
scalar barabasi_100nodes_network.node[11].proactive_component 	hdistance[11].proactive_component 	2.376253562367
scalar barabasi_100nodes_network.node[11].proactive_component 	downloads[11].proactive_component 	473351
scalar barabasi_100nodes_network.node[11].proactive_component 	avg_time[11].proactive_component 	0
scalar barabasi_100nodes_network.node[12].core_layer 	interests[12] 	12755186
scalar barabasi_100nodes_network.node[12].core_layer 	repo_load[12] 	11287272
scalar barabasi_100nodes_network.node[12].core_layer 	data[12] 	519667
scalar barabasi_100nodes_network.node[12].core_layer 	slots_sent[face$o[1]->client[12]] 	1176336683
scalar barabasi_100nodes_network.node[12].core_layer 	slots_sent[face$o[2]->node[8]] 	3021856483
scalar barabasi_100nodes_network.node[12].content_store 	p_hit[12] 	0.074342075450723
scalar barabasi_100nodes_network.node[12].content_store 	hits[12] 	948247
scalar barabasi_100nodes_network.node[12].content_store 	misses[12] 	11806939
scalar barabasi_100nodes_network.node[12].content_store 	decision_yes[12] 	519667
scalar barabasi_100nodes_network.node[12].content_store 	decision_no[12] 	11287272
scalar barabasi_100nodes_network.node[12].content_store 	decision_ratio[12] 	0.044013693981141
scalar barabasi_100nodes_network.node[12].content_store 	"representation_breakdown[12] 22587:3219:1650:1405:5712:" 	0
scalar barabasi_100nodes_network.node[12].proactive_component 	hdistance[12].proactive_component 	3.7734096795796
scalar barabasi_100nodes_network.node[12].proactive_component 	downloads[12].proactive_component 	282223
scalar barabasi_100nodes_network.node[12].proactive_component 	avg_time[12].proactive_component 	0
scalar barabasi_100nodes_network.node[13].core_layer 	interests[13] 	4737076
scalar barabasi_100nodes_network.node[13].core_layer 	data[13] 	3230763
scalar barabasi_100nodes_network.node[13].core_layer 	slots_sent[face$o[1]->client[13]] 	1414875518
scalar barabasi_100nodes_network.node[13].core_layer 	slots_sent[face$o[2]->node[2]] 	0
scalar barabasi_100nodes_network.node[13].core_layer 	slots_sent[face$o[3]->node[67]] 	260569996
scalar barabasi_100nodes_network.node[13].core_layer 	slots_sent[face$o[4]->node[78]] 	640035826
scalar barabasi_100nodes_network.node[13].content_store 	p_hit[13] 	0.31798370978215
scalar barabasi_100nodes_network.node[13].content_store 	hits[13] 	1506313
scalar barabasi_100nodes_network.node[13].content_store 	misses[13] 	3230763
scalar barabasi_100nodes_network.node[13].content_store 	decision_yes[13] 	3230763
scalar barabasi_100nodes_network.node[13].content_store 	decision_no[13] 	0
scalar barabasi_100nodes_network.node[13].content_store 	decision_ratio[13] 	1
scalar barabasi_100nodes_network.node[13].content_store 	"representation_breakdown[13] 23379:3746:1863:1495:5383:" 	0
scalar barabasi_100nodes_network.node[13].proactive_component 	hdistance[13].proactive_component 	2.7614419241667
scalar barabasi_100nodes_network.node[13].proactive_component 	downloads[13].proactive_component 	965987
scalar barabasi_100nodes_network.node[13].proactive_component 	avg_time[13].proactive_component 	0
scalar barabasi_100nodes_network.node[14].core_layer 	interests[14] 	1912455
scalar barabasi_100nodes_network.node[14].core_layer 	data[14] 	733359
scalar barabasi_100nodes_network.node[14].core_layer 	slots_sent[face$o[1]->client[14]] 	1451743694
scalar barabasi_100nodes_network.node[14].core_layer 	slots_sent[face$o[2]->node[8]] 	0
scalar barabasi_100nodes_network.node[14].content_store 	p_hit[14] 	0.61653529102646
scalar barabasi_100nodes_network.node[14].content_store 	hits[14] 	1179096
scalar barabasi_100nodes_network.node[14].content_store 	misses[14] 	733359
scalar barabasi_100nodes_network.node[14].content_store 	decision_yes[14] 	733359
scalar barabasi_100nodes_network.node[14].content_store 	decision_no[14] 	0
scalar barabasi_100nodes_network.node[14].content_store 	decision_ratio[14] 	1
scalar barabasi_100nodes_network.node[14].content_store 	"representation_breakdown[14] 21123:2866:1588:1366:5962:" 	0
scalar barabasi_100nodes_network.node[14].proactive_component 	hdistance[14].proactive_component 	3.1322399870564
scalar barabasi_100nodes_network.node[14].proactive_component 	downloads[14].proactive_component 	339935
scalar barabasi_100nodes_network.node[14].proactive_component 	avg_time[14].proactive_component 	0
scalar barabasi_100nodes_network.node[15].core_layer 	interests[15] 	3596865
scalar barabasi_100nodes_network.node[15].core_layer 	data[15] 	2139343
scalar barabasi_100nodes_network.node[15].core_layer 	slots_sent[face$o[1]->client[15]] 	1374714834
scalar barabasi_100nodes_network.node[15].core_layer 	slots_sent[face$o[2]->node[0]] 	0
scalar barabasi_100nodes_network.node[15].core_layer 	slots_sent[face$o[3]->node[40]] 	240940846
scalar barabasi_100nodes_network.node[15].core_layer 	slots_sent[face$o[4]->node[56]] 	240656791
scalar barabasi_100nodes_network.node[15].content_store 	p_hit[15] 	0.40522010139385
scalar barabasi_100nodes_network.node[15].content_store 	hits[15] 	1457522
scalar barabasi_100nodes_network.node[15].content_store 	misses[15] 	2139343
scalar barabasi_100nodes_network.node[15].content_store 	decision_yes[15] 	2139343
scalar barabasi_100nodes_network.node[15].content_store 	decision_no[15] 	0
scalar barabasi_100nodes_network.node[15].content_store 	decision_ratio[15] 	1
scalar barabasi_100nodes_network.node[15].content_store 	"representation_breakdown[15] 25652:3897:1899:1411:5203:" 	0
scalar barabasi_100nodes_network.node[15].proactive_component 	hdistance[15].proactive_component 	2.387784057203
scalar barabasi_100nodes_network.node[15].proactive_component 	downloads[15].proactive_component 	1011416
scalar barabasi_100nodes_network.node[15].proactive_component 	avg_time[15].proactive_component 	0
scalar barabasi_100nodes_network.node[16].core_layer 	interests[16] 	6291952
scalar barabasi_100nodes_network.node[16].core_layer 	data[16] 	4715852
scalar barabasi_100nodes_network.node[16].core_layer 	slots_sent[face$o[1]->client[16]] 	1404228242
scalar barabasi_100nodes_network.node[16].core_layer 	slots_sent[face$o[2]->node[2]] 	0
scalar barabasi_100nodes_network.node[16].core_layer 	slots_sent[face$o[3]->node[19]] 	1124726014
scalar barabasi_100nodes_network.node[16].core_layer 	slots_sent[face$o[4]->node[20]] 	260713893
scalar barabasi_100nodes_network.node[16].content_store 	p_hit[16] 	0.25049460008595
scalar barabasi_100nodes_network.node[16].content_store 	hits[16] 	1576100
scalar barabasi_100nodes_network.node[16].content_store 	misses[16] 	4715852
scalar barabasi_100nodes_network.node[16].content_store 	decision_yes[16] 	4715852
scalar barabasi_100nodes_network.node[16].content_store 	decision_no[16] 	0
scalar barabasi_100nodes_network.node[16].content_store 	decision_ratio[16] 	1
scalar barabasi_100nodes_network.node[16].content_store 	"representation_breakdown[16] 23383:3828:1934:1551:5296:" 	0
scalar barabasi_100nodes_network.node[16].proactive_component 	hdistance[16].proactive_component 	2.6864034655019
scalar barabasi_100nodes_network.node[16].proactive_component 	downloads[16].proactive_component 	1114990
scalar barabasi_100nodes_network.node[16].proactive_component 	avg_time[16].proactive_component 	0
scalar barabasi_100nodes_network.node[17].core_layer 	interests[17] 	1911663
scalar barabasi_100nodes_network.node[17].core_layer 	data[17] 	731154
scalar barabasi_100nodes_network.node[17].core_layer 	slots_sent[face$o[1]->client[17]] 	1452653921
scalar barabasi_100nodes_network.node[17].core_layer 	slots_sent[face$o[2]->node[8]] 	0
scalar barabasi_100nodes_network.node[17].content_store 	p_hit[17] 	0.61752986797359
scalar barabasi_100nodes_network.node[17].content_store 	hits[17] 	1180509
scalar barabasi_100nodes_network.node[17].content_store 	misses[17] 	731154
scalar barabasi_100nodes_network.node[17].content_store 	decision_yes[17] 	731154
scalar barabasi_100nodes_network.node[17].content_store 	decision_no[17] 	0
scalar barabasi_100nodes_network.node[17].content_store 	decision_ratio[17] 	1
scalar barabasi_100nodes_network.node[17].content_store 	"representation_breakdown[17] 21540:2956:1696:1348:5875:" 	0
scalar barabasi_100nodes_network.node[17].proactive_component 	hdistance[17].proactive_component 	3.1371218032585
scalar barabasi_100nodes_network.node[17].proactive_component 	downloads[17].proactive_component 	340894
scalar barabasi_100nodes_network.node[17].proactive_component 	avg_time[17].proactive_component 	0
scalar barabasi_100nodes_network.node[18].core_layer 	interests[18] 	20536237
scalar barabasi_100nodes_network.node[18].core_layer 	data[18] 	15348608
scalar barabasi_100nodes_network.node[18].core_layer 	slots_sent[face$o[1]->client[18]] 	1318020270
scalar barabasi_100nodes_network.node[18].core_layer 	slots_sent[face$o[2]->node[2]] 	4252843268
scalar barabasi_100nodes_network.node[18].core_layer 	slots_sent[face$o[3]->node[53]] 	256766507
scalar barabasi_100nodes_network.node[18].core_layer 	slots_sent[face$o[4]->node[68]] 	257089379
scalar barabasi_100nodes_network.node[18].core_layer 	slots_sent[face$o[5]->node[72]] 	170157941
scalar barabasi_100nodes_network.node[18].content_store 	p_hit[18] 	0.2526085475153
scalar barabasi_100nodes_network.node[18].content_store 	hits[18] 	5187629
scalar barabasi_100nodes_network.node[18].content_store 	misses[18] 	15348608
scalar barabasi_100nodes_network.node[18].content_store 	decision_yes[18] 	15348608
scalar barabasi_100nodes_network.node[18].content_store 	decision_no[18] 	0
scalar barabasi_100nodes_network.node[18].content_store 	decision_ratio[18] 	1
scalar barabasi_100nodes_network.node[18].content_store 	"representation_breakdown[18] 25497:5847:2692:1773:4228:" 	0
scalar barabasi_100nodes_network.node[18].proactive_component 	hdistance[18].proactive_component 	2.0017916828282
scalar barabasi_100nodes_network.node[18].proactive_component 	downloads[18].proactive_component 	9245498
scalar barabasi_100nodes_network.node[18].proactive_component 	avg_time[18].proactive_component 	0
scalar barabasi_100nodes_network.node[19].core_layer 	interests[19] 	5064531
scalar barabasi_100nodes_network.node[19].core_layer 	data[19] 	3398106
scalar barabasi_100nodes_network.node[19].core_layer 	slots_sent[face$o[1]->client[19]] 	1436247634
scalar barabasi_100nodes_network.node[19].core_layer 	slots_sent[face$o[2]->node[16]] 	0
scalar barabasi_100nodes_network.node[19].core_layer 	slots_sent[face$o[3]->node[63]] 	259975488
scalar barabasi_100nodes_network.node[19].core_layer 	slots_sent[face$o[4]->node[70]] 	259975364
scalar barabasi_100nodes_network.node[19].core_layer 	slots_sent[face$o[5]->node[80]] 	260463060
scalar barabasi_100nodes_network.node[19].core_layer 	slots_sent[face$o[6]->node[89]] 	260372362
scalar barabasi_100nodes_network.node[19].content_store 	p_hit[19] 	0.32903836505295
scalar barabasi_100nodes_network.node[19].content_store 	hits[19] 	1666425
scalar barabasi_100nodes_network.node[19].content_store 	misses[19] 	3398106
scalar barabasi_100nodes_network.node[19].content_store 	decision_yes[19] 	3398106
scalar barabasi_100nodes_network.node[19].content_store 	decision_no[19] 	0
scalar barabasi_100nodes_network.node[19].content_store 	decision_ratio[19] 	1
scalar barabasi_100nodes_network.node[19].content_store 	"representation_breakdown[19] 22699:3576:1871:1498:5470:" 	0
scalar barabasi_100nodes_network.node[19].proactive_component 	hdistance[19].proactive_component 	3.3420990290789
scalar barabasi_100nodes_network.node[19].proactive_component 	downloads[19].proactive_component 	1148188
scalar barabasi_100nodes_network.node[19].proactive_component 	avg_time[19].proactive_component 	0
scalar barabasi_100nodes_network.node[20].core_layer 	interests[20] 	1900620
scalar barabasi_100nodes_network.node[20].core_layer 	data[20] 	725171
scalar barabasi_100nodes_network.node[20].core_layer 	slots_sent[face$o[1]->client[20]] 	1474224280
scalar barabasi_100nodes_network.node[20].core_layer 	slots_sent[face$o[2]->node[16]] 	0
scalar barabasi_100nodes_network.node[20].content_store 	p_hit[20] 	0.61845555660784
scalar barabasi_100nodes_network.node[20].content_store 	hits[20] 	1175449
scalar barabasi_100nodes_network.node[20].content_store 	misses[20] 	725171
scalar barabasi_100nodes_network.node[20].content_store 	decision_yes[20] 	725171
scalar barabasi_100nodes_network.node[20].content_store 	decision_no[20] 	0
scalar barabasi_100nodes_network.node[20].content_store 	decision_ratio[20] 	1
scalar barabasi_100nodes_network.node[20].content_store 	"representation_breakdown[20] 20378:2805:1475:1304:6131:" 	0
scalar barabasi_100nodes_network.node[20].proactive_component 	hdistance[20].proactive_component 	3.1826604874933
scalar barabasi_100nodes_network.node[20].proactive_component 	downloads[20].proactive_component 	294322
scalar barabasi_100nodes_network.node[20].proactive_component 	avg_time[20].proactive_component 	0
scalar barabasi_100nodes_network.node[21].core_layer 	interests[21] 	3355284
scalar barabasi_100nodes_network.node[21].core_layer 	data[21] 	1954026
scalar barabasi_100nodes_network.node[21].core_layer 	slots_sent[face$o[1]->client[21]] 	1374808595
scalar barabasi_100nodes_network.node[21].core_layer 	slots_sent[face$o[2]->node[0]] 	0
scalar barabasi_100nodes_network.node[21].core_layer 	slots_sent[face$o[3]->node[24]] 	240177998
scalar barabasi_100nodes_network.node[21].core_layer 	slots_sent[face$o[4]->node[57]] 	168669353
scalar barabasi_100nodes_network.node[21].content_store 	p_hit[21] 	0.41762724109196
scalar barabasi_100nodes_network.node[21].content_store 	hits[21] 	1401258
scalar barabasi_100nodes_network.node[21].content_store 	misses[21] 	1954026
scalar barabasi_100nodes_network.node[21].content_store 	decision_yes[21] 	1954026
scalar barabasi_100nodes_network.node[21].content_store 	decision_no[21] 	0
scalar barabasi_100nodes_network.node[21].content_store 	decision_ratio[21] 	1
scalar barabasi_100nodes_network.node[21].content_store 	"representation_breakdown[21] 25428:4056:1902:1555:5086:" 	0
scalar barabasi_100nodes_network.node[21].proactive_component 	hdistance[21].proactive_component 	2.4095433229799
scalar barabasi_100nodes_network.node[21].proactive_component 	downloads[21].proactive_component 	919512
scalar barabasi_100nodes_network.node[21].proactive_component 	avg_time[21].proactive_component 	0
scalar barabasi_100nodes_network.node[22].core_layer 	interests[22] 	1959846
scalar barabasi_100nodes_network.node[22].core_layer 	data[22] 	755069
scalar barabasi_100nodes_network.node[22].core_layer 	slots_sent[face$o[1]->client[22]] 	1406435100
scalar barabasi_100nodes_network.node[22].core_layer 	slots_sent[face$o[2]->node[0]] 	0
scalar barabasi_100nodes_network.node[22].content_store 	p_hit[22] 	0.61473044310624
scalar barabasi_100nodes_network.node[22].content_store 	hits[22] 	1204777
scalar barabasi_100nodes_network.node[22].content_store 	misses[22] 	755069
scalar barabasi_100nodes_network.node[22].content_store 	decision_yes[22] 	755069
scalar barabasi_100nodes_network.node[22].content_store 	decision_no[22] 	0
scalar barabasi_100nodes_network.node[22].content_store 	decision_ratio[22] 	1
scalar barabasi_100nodes_network.node[22].content_store 	"representation_breakdown[22] 25086:3433:1731:1328:5475:" 	0
scalar barabasi_100nodes_network.node[22].proactive_component 	hdistance[22].proactive_component 	2.3797602756386
scalar barabasi_100nodes_network.node[22].proactive_component 	downloads[22].proactive_component 	472793
scalar barabasi_100nodes_network.node[22].proactive_component 	avg_time[22].proactive_component 	0
scalar barabasi_100nodes_network.node[23].core_layer 	interests[23] 	6145558
scalar barabasi_100nodes_network.node[23].core_layer 	data[23] 	4341009
scalar barabasi_100nodes_network.node[23].core_layer 	slots_sent[face$o[1]->client[23]] 	1431934653
scalar barabasi_100nodes_network.node[23].core_layer 	slots_sent[face$o[2]->node[7]] 	0
scalar barabasi_100nodes_network.node[23].core_layer 	slots_sent[face$o[3]->node[46]] 	343731716
scalar barabasi_100nodes_network.node[23].core_layer 	slots_sent[face$o[4]->node[47]] 	259797174
scalar barabasi_100nodes_network.node[23].core_layer 	slots_sent[face$o[5]->node[51]] 	260266312
scalar barabasi_100nodes_network.node[23].core_layer 	slots_sent[face$o[6]->node[83]] 	260698294
scalar barabasi_100nodes_network.node[23].core_layer 	slots_sent[face$o[7]->node[86]] 	260002375
scalar barabasi_100nodes_network.node[23].content_store 	p_hit[23] 	0.29363468703737
scalar barabasi_100nodes_network.node[23].content_store 	hits[23] 	1804549
scalar barabasi_100nodes_network.node[23].content_store 	misses[23] 	4341009
scalar barabasi_100nodes_network.node[23].content_store 	decision_yes[23] 	4341009
scalar barabasi_100nodes_network.node[23].content_store 	decision_no[23] 	0
scalar barabasi_100nodes_network.node[23].content_store 	decision_ratio[23] 	1
scalar barabasi_100nodes_network.node[23].content_store 	"representation_breakdown[23] 23012:3671:1845:1600:5362:" 	0
scalar barabasi_100nodes_network.node[23].proactive_component 	hdistance[23].proactive_component 	3.3077932271167
scalar barabasi_100nodes_network.node[23].proactive_component 	downloads[23].proactive_component 	1396392
scalar barabasi_100nodes_network.node[23].proactive_component 	avg_time[23].proactive_component 	0
scalar barabasi_100nodes_network.node[24].core_layer 	interests[24] 	1920735
scalar barabasi_100nodes_network.node[24].core_layer 	data[24] 	728349
scalar barabasi_100nodes_network.node[24].core_layer 	slots_sent[face$o[1]->client[24]] 	1444319362
scalar barabasi_100nodes_network.node[24].core_layer 	slots_sent[face$o[2]->node[21]] 	0
scalar barabasi_100nodes_network.node[24].content_store 	p_hit[24] 	0.62079672625323
scalar barabasi_100nodes_network.node[24].content_store 	hits[24] 	1192386
scalar barabasi_100nodes_network.node[24].content_store 	misses[24] 	728349
scalar barabasi_100nodes_network.node[24].content_store 	decision_yes[24] 	728349
scalar barabasi_100nodes_network.node[24].content_store 	decision_no[24] 	0
scalar barabasi_100nodes_network.node[24].content_store 	decision_ratio[24] 	1
scalar barabasi_100nodes_network.node[24].content_store 	"representation_breakdown[24] 23582:3190:1590:1343:5702:" 	0
scalar barabasi_100nodes_network.node[24].proactive_component 	hdistance[24].proactive_component 	2.6499295641214
scalar barabasi_100nodes_network.node[24].proactive_component 	downloads[24].proactive_component 	364161
scalar barabasi_100nodes_network.node[24].proactive_component 	avg_time[24].proactive_component 	0
scalar barabasi_100nodes_network.node[25].core_layer 	interests[25] 	2704617
scalar barabasi_100nodes_network.node[25].core_layer 	data[25] 	1422129
scalar barabasi_100nodes_network.node[25].core_layer 	slots_sent[face$o[1]->client[25]] 	1437622224
scalar barabasi_100nodes_network.node[25].core_layer 	slots_sent[face$o[2]->node[2]] 	0
scalar barabasi_100nodes_network.node[25].core_layer 	slots_sent[face$o[3]->node[38]] 	256188587
scalar barabasi_100nodes_network.node[25].content_store 	p_hit[25] 	0.47418469971904
scalar barabasi_100nodes_network.node[25].content_store 	hits[25] 	1282488
scalar barabasi_100nodes_network.node[25].content_store 	misses[25] 	1422129
scalar barabasi_100nodes_network.node[25].content_store 	decision_yes[25] 	1422129
scalar barabasi_100nodes_network.node[25].content_store 	decision_no[25] 	0
scalar barabasi_100nodes_network.node[25].content_store 	decision_ratio[25] 	1
scalar barabasi_100nodes_network.node[25].content_store 	"representation_breakdown[25] 22111:3253:1687:1372:5753:" 	0
scalar barabasi_100nodes_network.node[25].proactive_component 	hdistance[25].proactive_component 	2.7967080624729
scalar barabasi_100nodes_network.node[25].proactive_component 	downloads[25].proactive_component 	540715
scalar barabasi_100nodes_network.node[25].proactive_component 	avg_time[25].proactive_component 	0
scalar barabasi_100nodes_network.node[26].core_layer 	interests[26] 	3797547
scalar barabasi_100nodes_network.node[26].core_layer 	data[26] 	2386860
scalar barabasi_100nodes_network.node[26].core_layer 	slots_sent[face$o[1]->client[26]] 	1423438142
scalar barabasi_100nodes_network.node[26].core_layer 	slots_sent[face$o[2]->node[2]] 	0
scalar barabasi_100nodes_network.node[26].core_layer 	slots_sent[face$o[3]->node[77]] 	325766025
scalar barabasi_100nodes_network.node[26].core_layer 	slots_sent[face$o[4]->node[91]] 	260491715
scalar barabasi_100nodes_network.node[26].content_store 	p_hit[26] 	0.37147321678968
scalar barabasi_100nodes_network.node[26].content_store 	hits[26] 	1410687
scalar barabasi_100nodes_network.node[26].content_store 	misses[26] 	2386860
scalar barabasi_100nodes_network.node[26].content_store 	decision_yes[26] 	2386860
scalar barabasi_100nodes_network.node[26].content_store 	decision_no[26] 	0
scalar barabasi_100nodes_network.node[26].content_store 	decision_ratio[26] 	1
scalar barabasi_100nodes_network.node[26].content_store 	"representation_breakdown[26] 22701:3766:1790:1524:5448:" 	0
scalar barabasi_100nodes_network.node[26].proactive_component 	hdistance[26].proactive_component 	2.7928209341717
scalar barabasi_100nodes_network.node[26].proactive_component 	downloads[26].proactive_component 	810579
scalar barabasi_100nodes_network.node[26].proactive_component 	avg_time[26].proactive_component 	0
scalar barabasi_100nodes_network.node[27].core_layer 	interests[27] 	2746025
scalar barabasi_100nodes_network.node[27].core_layer 	data[27] 	1438586
scalar barabasi_100nodes_network.node[27].core_layer 	slots_sent[face$o[1]->client[27]] 	1405076501
scalar barabasi_100nodes_network.node[27].core_layer 	slots_sent[face$o[2]->node[4]] 	0
scalar barabasi_100nodes_network.node[27].core_layer 	slots_sent[face$o[3]->node[99]] 	237904147
scalar barabasi_100nodes_network.node[27].content_store 	p_hit[27] 	0.47612057428465
scalar barabasi_100nodes_network.node[27].content_store 	hits[27] 	1307439
scalar barabasi_100nodes_network.node[27].content_store 	misses[27] 	1438586
scalar barabasi_100nodes_network.node[27].content_store 	decision_yes[27] 	1438586
scalar barabasi_100nodes_network.node[27].content_store 	decision_no[27] 	0
scalar barabasi_100nodes_network.node[27].content_store 	decision_ratio[27] 	1
scalar barabasi_100nodes_network.node[27].content_store 	"representation_breakdown[27] 25268:3739:1696:1399:5363:" 	0
scalar barabasi_100nodes_network.node[27].proactive_component 	hdistance[27].proactive_component 	2.5443866732248
scalar barabasi_100nodes_network.node[27].proactive_component 	downloads[27].proactive_component 	672961
scalar barabasi_100nodes_network.node[27].proactive_component 	avg_time[27].proactive_component 	0
scalar barabasi_100nodes_network.node[28].core_layer 	interests[28] 	1955979
scalar barabasi_100nodes_network.node[28].core_layer 	data[28] 	752745
scalar barabasi_100nodes_network.node[28].core_layer 	slots_sent[face$o[1]->client[28]] 	1404525072
scalar barabasi_100nodes_network.node[28].core_layer 	slots_sent[face$o[2]->node[0]] 	0
scalar barabasi_100nodes_network.node[28].content_store 	p_hit[28] 	0.61515691119383
scalar barabasi_100nodes_network.node[28].content_store 	hits[28] 	1203234
scalar barabasi_100nodes_network.node[28].content_store 	misses[28] 	752745
scalar barabasi_100nodes_network.node[28].content_store 	decision_yes[28] 	752745
scalar barabasi_100nodes_network.node[28].content_store 	decision_no[28] 	0
scalar barabasi_100nodes_network.node[28].content_store 	decision_ratio[28] 	1
scalar barabasi_100nodes_network.node[28].content_store 	"representation_breakdown[28] 25372:3500:1727:1393:5392:" 	0
scalar barabasi_100nodes_network.node[28].proactive_component 	hdistance[28].proactive_component 	2.3809756324405
scalar barabasi_100nodes_network.node[28].proactive_component 	downloads[28].proactive_component 	473088
scalar barabasi_100nodes_network.node[28].proactive_component 	avg_time[28].proactive_component 	0
scalar barabasi_100nodes_network.node[29].core_layer 	interests[29] 	1918629
scalar barabasi_100nodes_network.node[29].core_layer 	data[29] 	737359
scalar barabasi_100nodes_network.node[29].core_layer 	slots_sent[face$o[1]->client[29]] 	1449469597
scalar barabasi_100nodes_network.node[29].core_layer 	slots_sent[face$o[2]->node[2]] 	0
scalar barabasi_100nodes_network.node[29].content_store 	p_hit[29] 	0.61568442882913
scalar barabasi_100nodes_network.node[29].content_store 	hits[29] 	1181270
scalar barabasi_100nodes_network.node[29].content_store 	misses[29] 	737359
scalar barabasi_100nodes_network.node[29].content_store 	decision_yes[29] 	737359
scalar barabasi_100nodes_network.node[29].content_store 	decision_no[29] 	0
scalar barabasi_100nodes_network.node[29].content_store 	decision_ratio[29] 	1
scalar barabasi_100nodes_network.node[29].content_store 	"representation_breakdown[29] 21339:2957:1568:1410:5902:" 	0
scalar barabasi_100nodes_network.node[29].proactive_component 	hdistance[29].proactive_component 	2.8175889999515
scalar barabasi_100nodes_network.node[29].proactive_component 	downloads[29].proactive_component 	350253
scalar barabasi_100nodes_network.node[29].proactive_component 	avg_time[29].proactive_component 	0
scalar barabasi_100nodes_network.node[30].core_layer 	interests[30] 	2746606
scalar barabasi_100nodes_network.node[30].core_layer 	data[30] 	1438866
scalar barabasi_100nodes_network.node[30].core_layer 	slots_sent[face$o[1]->client[30]] 	1404402680
scalar barabasi_100nodes_network.node[30].core_layer 	slots_sent[face$o[2]->node[4]] 	0
scalar barabasi_100nodes_network.node[30].core_layer 	slots_sent[face$o[3]->node[88]] 	237491122
scalar barabasi_100nodes_network.node[30].content_store 	p_hit[30] 	0.47612944849025
scalar barabasi_100nodes_network.node[30].content_store 	hits[30] 	1307740
scalar barabasi_100nodes_network.node[30].content_store 	misses[30] 	1438866
scalar barabasi_100nodes_network.node[30].content_store 	decision_yes[30] 	1438866
scalar barabasi_100nodes_network.node[30].content_store 	decision_no[30] 	0
scalar barabasi_100nodes_network.node[30].content_store 	decision_ratio[30] 	1
scalar barabasi_100nodes_network.node[30].content_store 	"representation_breakdown[30] 25186:3650:1721:1350:5412:" 	0
scalar barabasi_100nodes_network.node[30].proactive_component 	hdistance[30].proactive_component 	2.5437502963209
scalar barabasi_100nodes_network.node[30].proactive_component 	downloads[30].proactive_component 	674944
scalar barabasi_100nodes_network.node[30].proactive_component 	avg_time[30].proactive_component 	0
scalar barabasi_100nodes_network.node[31].core_layer 	interests[31] 	3280757
scalar barabasi_100nodes_network.node[31].core_layer 	data[31] 	2011902
scalar barabasi_100nodes_network.node[31].core_layer 	slots_sent[face$o[1]->client[31]] 	1452036165
scalar barabasi_100nodes_network.node[31].core_layer 	slots_sent[face$o[2]->node[7]] 	0
scalar barabasi_100nodes_network.node[31].core_layer 	slots_sent[face$o[3]->node[65]] 	421902728
scalar barabasi_100nodes_network.node[31].content_store 	p_hit[31] 	0.3867567759514
scalar barabasi_100nodes_network.node[31].content_store 	hits[31] 	1268855
scalar barabasi_100nodes_network.node[31].content_store 	misses[31] 	2011902
scalar barabasi_100nodes_network.node[31].content_store 	decision_yes[31] 	2011902
scalar barabasi_100nodes_network.node[31].content_store 	decision_no[31] 	0
scalar barabasi_100nodes_network.node[31].content_store 	decision_ratio[31] 	1
scalar barabasi_100nodes_network.node[31].content_store 	"representation_breakdown[31] 22335:3586:1786:1412:5597:" 	0
scalar barabasi_100nodes_network.node[31].proactive_component 	hdistance[31].proactive_component 	3.2939574856448
scalar barabasi_100nodes_network.node[31].proactive_component 	downloads[31].proactive_component 	525940
scalar barabasi_100nodes_network.node[31].proactive_component 	avg_time[31].proactive_component 	0
scalar barabasi_100nodes_network.node[32].core_layer 	interests[32] 	3501125
scalar barabasi_100nodes_network.node[32].core_layer 	data[32] 	2091663
scalar barabasi_100nodes_network.node[32].core_layer 	slots_sent[face$o[1]->client[32]] 	1426957321
scalar barabasi_100nodes_network.node[32].core_layer 	slots_sent[face$o[2]->node[2]] 	0
scalar barabasi_100nodes_network.node[32].core_layer 	slots_sent[face$o[3]->node[43]] 	259247280
scalar barabasi_100nodes_network.node[32].core_layer 	slots_sent[face$o[4]->node[64]] 	258793804
scalar barabasi_100nodes_network.node[32].content_store 	p_hit[32] 	0.40257402977614
scalar barabasi_100nodes_network.node[32].content_store 	hits[32] 	1409462
scalar barabasi_100nodes_network.node[32].content_store 	misses[32] 	2091663
scalar barabasi_100nodes_network.node[32].content_store 	decision_yes[32] 	2091663
scalar barabasi_100nodes_network.node[32].content_store 	decision_no[32] 	0
scalar barabasi_100nodes_network.node[32].content_store 	decision_ratio[32] 	1
scalar barabasi_100nodes_network.node[32].content_store 	"representation_breakdown[32] 22652:3364:1703:1510:5579:" 	0
scalar barabasi_100nodes_network.node[32].proactive_component 	hdistance[32].proactive_component 	2.8215465287862
scalar barabasi_100nodes_network.node[32].proactive_component 	downloads[32].proactive_component 	765107
scalar barabasi_100nodes_network.node[32].proactive_component 	avg_time[32].proactive_component 	0
scalar barabasi_100nodes_network.node[33].core_layer 	interests[33] 	1918066
scalar barabasi_100nodes_network.node[33].core_layer 	data[33] 	736682
scalar barabasi_100nodes_network.node[33].core_layer 	slots_sent[face$o[1]->client[33]] 	1448531302
scalar barabasi_100nodes_network.node[33].core_layer 	slots_sent[face$o[2]->node[2]] 	0
scalar barabasi_100nodes_network.node[33].content_store 	p_hit[33] 	0.61592458236578
scalar barabasi_100nodes_network.node[33].content_store 	hits[33] 	1181384
scalar barabasi_100nodes_network.node[33].content_store 	misses[33] 	736682
scalar barabasi_100nodes_network.node[33].content_store 	decision_yes[33] 	736682
scalar barabasi_100nodes_network.node[33].content_store 	decision_no[33] 	0
scalar barabasi_100nodes_network.node[33].content_store 	decision_ratio[33] 	1
[...]
scalar barabasi_100nodes_network.client[9] 	downloads[9].real 	1801138
scalar barabasi_100nodes_network.client[9] 	avg_time[9].real 	0
scalar barabasi_100nodes_network.client[10] 	hdistance[10].real 	0.94281838750743
scalar barabasi_100nodes_network.client[10] 	downloads[10].real 	1798830
scalar barabasi_100nodes_network.client[10] 	avg_time[10].real 	0
scalar barabasi_100nodes_network.client[11] 	hdistance[11].real 	0.92235847374843
scalar barabasi_100nodes_network.client[11] 	downloads[11].real 	1800673
scalar barabasi_100nodes_network.client[11] 	avg_time[11].real 	0
scalar barabasi_100nodes_network.client[12] 	hdistance[12].real 	1.2265745690565
scalar barabasi_100nodes_network.client[12] 	downloads[12].real 	1799540
scalar barabasi_100nodes_network.client[12] 	avg_time[12].real 	0
scalar barabasi_100nodes_network.client[13] 	hdistance[13].real 	1.1611307946642
scalar barabasi_100nodes_network.client[13] 	downloads[13].real 	1799867
scalar barabasi_100nodes_network.client[13] 	avg_time[13].real 	0
scalar barabasi_100nodes_network.client[14] 	hdistance[14].real 	1.2489152786031
scalar barabasi_100nodes_network.client[14] 	downloads[14].real 	1798849
scalar barabasi_100nodes_network.client[14] 	avg_time[14].real 	0
scalar barabasi_100nodes_network.client[15] 	hdistance[15].real 	0.96062149536082
scalar barabasi_100nodes_network.client[15] 	downloads[15].real 	1801719
scalar barabasi_100nodes_network.client[15] 	avg_time[15].real 	0
scalar barabasi_100nodes_network.client[16] 	hdistance[16].real 	1.1790844884063
scalar barabasi_100nodes_network.client[16] 	downloads[16].real 	1798732
scalar barabasi_100nodes_network.client[16] 	avg_time[16].real 	0
scalar barabasi_100nodes_network.client[17] 	hdistance[17].real 	1.2455202654525
scalar barabasi_100nodes_network.client[17] 	downloads[17].real 	1797986
scalar barabasi_100nodes_network.client[17] 	avg_time[17].real 	0
scalar barabasi_100nodes_network.client[18] 	hdistance[18].real 	1.2080137439408
scalar barabasi_100nodes_network.client[18] 	downloads[18].real 	1800357
scalar barabasi_100nodes_network.client[18] 	avg_time[18].real 	0
scalar barabasi_100nodes_network.client[19] 	hdistance[19].real 	1.4426807328991
scalar barabasi_100nodes_network.client[19] 	downloads[19].real 	1799866
scalar barabasi_100nodes_network.client[19] 	avg_time[19].real 	0
scalar barabasi_100nodes_network.client[20] 	hdistance[20].real 	1.3313525594386
scalar barabasi_100nodes_network.client[20] 	downloads[20].real 	1801821
scalar barabasi_100nodes_network.client[20] 	avg_time[20].real 	0
scalar barabasi_100nodes_network.client[21] 	hdistance[21].real 	0.96088952284462
scalar barabasi_100nodes_network.client[21] 	downloads[21].real 	1800336
scalar barabasi_100nodes_network.client[21] 	avg_time[21].real 	0
scalar barabasi_100nodes_network.client[22] 	hdistance[22].real 	0.92117455957347
scalar barabasi_100nodes_network.client[22] 	downloads[22].real 	1801322
scalar barabasi_100nodes_network.client[22] 	avg_time[22].real 	0
scalar barabasi_100nodes_network.client[23] 	hdistance[23].real 	1.4446512774063
scalar barabasi_100nodes_network.client[23] 	downloads[23].real 	1801776
scalar barabasi_100nodes_network.client[23] 	avg_time[23].real 	0
scalar barabasi_100nodes_network.client[24] 	hdistance[24].real 	1.1619525930323
scalar barabasi_100nodes_network.client[24] 	downloads[24].real 	1799187
scalar barabasi_100nodes_network.client[24] 	avg_time[24].real 	0
scalar barabasi_100nodes_network.client[25] 	hdistance[25].real 	1.1240248999722
scalar barabasi_100nodes_network.client[25] 	downloads[25].real 	1802251
scalar barabasi_100nodes_network.client[25] 	avg_time[25].real 	0
scalar barabasi_100nodes_network.client[26] 	hdistance[26].real 	1.1509790567285
scalar barabasi_100nodes_network.client[26] 	downloads[26].real 	1801581
scalar barabasi_100nodes_network.client[26] 	avg_time[26].real 	0
scalar barabasi_100nodes_network.client[27] 	hdistance[27].real 	1.1655628218389
scalar barabasi_100nodes_network.client[27] 	downloads[27].real 	1798260
scalar barabasi_100nodes_network.client[27] 	avg_time[27].real 	0
scalar barabasi_100nodes_network.client[28] 	hdistance[28].real 	0.92095201331382
scalar barabasi_100nodes_network.client[28] 	downloads[28].real 	1797832
scalar barabasi_100nodes_network.client[28] 	avg_time[28].real 	0
scalar barabasi_100nodes_network.client[29] 	hdistance[29].real 	1.1044218827731
scalar barabasi_100nodes_network.client[29] 	downloads[29].real 	1801088
scalar barabasi_100nodes_network.client[29] 	avg_time[29].real 	0
scalar barabasi_100nodes_network.client[30] 	hdistance[30].real 	1.1645469294633
scalar barabasi_100nodes_network.client[30] 	downloads[30].real 	1797943
scalar barabasi_100nodes_network.client[30] 	avg_time[30].real 	0
scalar barabasi_100nodes_network.client[31] 	hdistance[31].real 	1.3883218038687
scalar barabasi_100nodes_network.client[31] 	downloads[31].real 	1801905
scalar barabasi_100nodes_network.client[31] 	avg_time[31].real 	0
scalar barabasi_100nodes_network.client[32] 	hdistance[32].real 	1.1377821880978
scalar barabasi_100nodes_network.client[32] 	downloads[32].real 	1799819
scalar barabasi_100nodes_network.client[32] 	avg_time[32].real 	0
scalar barabasi_100nodes_network.client[33] 	hdistance[33].real 	1.1033588357902
scalar barabasi_100nodes_network.client[33] 	downloads[33].real 	1800088
scalar barabasi_100nodes_network.client[33] 	avg_time[33].real 	0
scalar barabasi_100nodes_network.client[34] 	hdistance[34].real 	1.1016166885268
scalar barabasi_100nodes_network.client[34] 	downloads[34].real 	1798553
scalar barabasi_100nodes_network.client[34] 	avg_time[34].real 	0
scalar barabasi_100nodes_network.client[35] 	hdistance[35].real 	1.1163684909659
scalar barabasi_100nodes_network.client[35] 	downloads[35].real 	1800728
scalar barabasi_100nodes_network.client[35] 	avg_time[35].real 	0
scalar barabasi_100nodes_network.client[36] 	hdistance[36].real 	1.1253832471791
scalar barabasi_100nodes_network.client[36] 	downloads[36].real 	1799100
scalar barabasi_100nodes_network.client[36] 	avg_time[36].real 	0
scalar barabasi_100nodes_network.client[37] 	hdistance[37].real 	0.90058641332278
scalar barabasi_100nodes_network.client[37] 	downloads[37].real 	1799925
scalar barabasi_100nodes_network.client[37] 	avg_time[37].real 	0
scalar barabasi_100nodes_network.client[38] 	hdistance[38].real 	1.3511288653843
scalar barabasi_100nodes_network.client[38] 	downloads[38].real 	1801632
scalar barabasi_100nodes_network.client[38] 	avg_time[38].real 	0
scalar barabasi_100nodes_network.client[39] 	hdistance[39].real 	1.2708753769347
scalar barabasi_100nodes_network.client[39] 	downloads[39].real 	1800710
scalar barabasi_100nodes_network.client[39] 	avg_time[39].real 	0
scalar barabasi_100nodes_network.client[40] 	hdistance[40].real 	1.1639047334189
scalar barabasi_100nodes_network.client[40] 	downloads[40].real 	1802059
scalar barabasi_100nodes_network.client[40] 	avg_time[40].real 	0
scalar barabasi_100nodes_network.client[41] 	hdistance[41].real 	1.1758289373691
scalar barabasi_100nodes_network.client[41] 	downloads[41].real 	1800136
scalar barabasi_100nodes_network.client[41] 	avg_time[41].real 	0
scalar barabasi_100nodes_network.client[42] 	hdistance[42].real 	1.3300236734286
scalar barabasi_100nodes_network.client[42] 	downloads[42].real 	1803710
scalar barabasi_100nodes_network.client[42] 	avg_time[42].real 	0
scalar barabasi_100nodes_network.client[43] 	hdistance[43].real 	1.3378327952637
scalar barabasi_100nodes_network.client[43] 	downloads[43].real 	1800882
scalar barabasi_100nodes_network.client[43] 	avg_time[43].real 	0
scalar barabasi_100nodes_network.client[44] 	hdistance[44].real 	0.92063053804061
scalar barabasi_100nodes_network.client[44] 	downloads[44].real 	1800050
scalar barabasi_100nodes_network.client[44] 	avg_time[44].real 	0
scalar barabasi_100nodes_network.client[45] 	hdistance[45].real 	1.1040199472656
scalar barabasi_100nodes_network.client[45] 	downloads[45].real 	1800347
scalar barabasi_100nodes_network.client[45] 	avg_time[45].real 	0
scalar barabasi_100nodes_network.client[46] 	hdistance[46].real 	1.3709984031633
scalar barabasi_100nodes_network.client[46] 	downloads[46].real 	1801687
scalar barabasi_100nodes_network.client[46] 	avg_time[46].real 	0
scalar barabasi_100nodes_network.client[47] 	hdistance[47].real 	1.5684443877211
scalar barabasi_100nodes_network.client[47] 	downloads[47].real 	1802120
scalar barabasi_100nodes_network.client[47] 	avg_time[47].real 	0
scalar barabasi_100nodes_network.client[48] 	hdistance[48].real 	1.3280839880426
scalar barabasi_100nodes_network.client[48] 	downloads[48].real 	1799399
scalar barabasi_100nodes_network.client[48] 	avg_time[48].real 	0
scalar barabasi_100nodes_network.client[49] 	hdistance[49].real 	1.332273568124
scalar barabasi_100nodes_network.client[49] 	downloads[49].real 	1802286
scalar barabasi_100nodes_network.client[49] 	avg_time[49].real 	0
scalar barabasi_100nodes_network.client[50] 	hdistance[50].real 	1.3195738555652
scalar barabasi_100nodes_network.client[50] 	downloads[50].real 	1798639
scalar barabasi_100nodes_network.client[50] 	avg_time[50].real 	0
scalar barabasi_100nodes_network.client[51] 	hdistance[51].real 	1.5739838076259
scalar barabasi_100nodes_network.client[51] 	downloads[51].real 	1798995
scalar barabasi_100nodes_network.client[51] 	avg_time[51].real 	0
scalar barabasi_100nodes_network.client[52] 	hdistance[52].real 	1.3515360544097
scalar barabasi_100nodes_network.client[52] 	downloads[52].real 	1798504
scalar barabasi_100nodes_network.client[52] 	avg_time[52].real 	0
scalar barabasi_100nodes_network.client[53] 	hdistance[53].real 	1.264946358366
scalar barabasi_100nodes_network.client[53] 	downloads[53].real 	1800840
scalar barabasi_100nodes_network.client[53] 	avg_time[53].real 	0
scalar barabasi_100nodes_network.client[54] 	hdistance[54].real 	1.3615915285315
scalar barabasi_100nodes_network.client[54] 	downloads[54].real 	1802946
scalar barabasi_100nodes_network.client[54] 	avg_time[54].real 	0
scalar barabasi_100nodes_network.client[55] 	hdistance[55].real 	1.1900824839397
scalar barabasi_100nodes_network.client[55] 	downloads[55].real 	1800108
scalar barabasi_100nodes_network.client[55] 	avg_time[55].real 	0
scalar barabasi_100nodes_network.client[56] 	hdistance[56].real 	1.1590034121046
scalar barabasi_100nodes_network.client[56] 	downloads[56].real 	1800062
scalar barabasi_100nodes_network.client[56] 	avg_time[56].real 	0
scalar barabasi_100nodes_network.client[57] 	hdistance[57].real 	1.0707286983678
scalar barabasi_100nodes_network.client[57] 	downloads[57].real 	1799510
scalar barabasi_100nodes_network.client[57] 	avg_time[57].real 	0
scalar barabasi_100nodes_network.client[58] 	hdistance[58].real 	0.9433106424779
scalar barabasi_100nodes_network.client[58] 	downloads[58].real 	1799844
scalar barabasi_100nodes_network.client[58] 	avg_time[58].real 	0
scalar barabasi_100nodes_network.client[59] 	hdistance[59].real 	1.1017304022893
scalar barabasi_100nodes_network.client[59] 	downloads[59].real 	1799177
scalar barabasi_100nodes_network.client[59] 	avg_time[59].real 	0
scalar barabasi_100nodes_network.client[60] 	hdistance[60].real 	1.3083493048034
scalar barabasi_100nodes_network.client[60] 	downloads[60].real 	1799563
scalar barabasi_100nodes_network.client[60] 	avg_time[60].real 	0
scalar barabasi_100nodes_network.client[61] 	hdistance[61].real 	1.2473626700663
scalar barabasi_100nodes_network.client[61] 	downloads[61].real 	1801064
scalar barabasi_100nodes_network.client[61] 	avg_time[61].real 	0
scalar barabasi_100nodes_network.client[62] 	hdistance[62].real 	1.1398515807259
scalar barabasi_100nodes_network.client[62] 	downloads[62].real 	1799901
scalar barabasi_100nodes_network.client[62] 	avg_time[62].real 	0
scalar barabasi_100nodes_network.client[63] 	hdistance[63].real 	1.5873473444334
scalar barabasi_100nodes_network.client[63] 	downloads[63].real 	1800049
scalar barabasi_100nodes_network.client[63] 	avg_time[63].real 	0
scalar barabasi_100nodes_network.client[64] 	hdistance[64].real 	1.3413620070887
scalar barabasi_100nodes_network.client[64] 	downloads[64].real 	1798346
scalar barabasi_100nodes_network.client[64] 	avg_time[64].real 	0
scalar barabasi_100nodes_network.client[65] 	hdistance[65].real 	1.4501426465707
scalar barabasi_100nodes_network.client[65] 	downloads[65].real 	1798501
scalar barabasi_100nodes_network.client[65] 	avg_time[65].real 	0
scalar barabasi_100nodes_network.client[66] 	hdistance[66].real 	1.2454017013469
scalar barabasi_100nodes_network.client[66] 	downloads[66].real 	1799633
scalar barabasi_100nodes_network.client[66] 	avg_time[66].real 	0
scalar barabasi_100nodes_network.client[67] 	hdistance[67].real 	1.3369153136048
scalar barabasi_100nodes_network.client[67] 	downloads[67].real 	1799191
scalar barabasi_100nodes_network.client[67] 	avg_time[67].real 	0
scalar barabasi_100nodes_network.client[68] 	hdistance[68].real 	1.2669826285728
scalar barabasi_100nodes_network.client[68] 	downloads[68].real 	1801061
scalar barabasi_100nodes_network.client[68] 	avg_time[68].real 	0
scalar barabasi_100nodes_network.client[69] 	hdistance[69].real 	1.3294433962264
scalar barabasi_100nodes_network.client[69] 	downloads[69].real 	1802000
scalar barabasi_100nodes_network.client[69] 	avg_time[69].real 	0
scalar barabasi_100nodes_network.client[70] 	hdistance[70].real 	1.5831830135807
scalar barabasi_100nodes_network.client[70] 	downloads[70].real 	1798943
scalar barabasi_100nodes_network.client[70] 	avg_time[70].real 	0
scalar barabasi_100nodes_network.client[71] 	hdistance[71].real 	1.1719817204999
scalar barabasi_100nodes_network.client[71] 	downloads[71].real 	1801581
scalar barabasi_100nodes_network.client[71] 	avg_time[71].real 	0
scalar barabasi_100nodes_network.client[72] 	hdistance[72].real 	1.2841933965855
scalar barabasi_100nodes_network.client[72] 	downloads[72].real 	1799887
scalar barabasi_100nodes_network.client[72] 	avg_time[72].real 	0
scalar barabasi_100nodes_network.client[73] 	hdistance[73].real 	0.91705362378042
scalar barabasi_100nodes_network.client[73] 	downloads[73].real 	1799295
scalar barabasi_100nodes_network.client[73] 	avg_time[73].real 	0
scalar barabasi_100nodes_network.client[74] 	hdistance[74].real 	0.92179582389288
scalar barabasi_100nodes_network.client[74] 	downloads[74].real 	1798996
scalar barabasi_100nodes_network.client[74] 	avg_time[74].real 	0
scalar barabasi_100nodes_network.client[75] 	hdistance[75].real 	1.3503278239918
scalar barabasi_100nodes_network.client[75] 	downloads[75].real 	1797916
scalar barabasi_100nodes_network.client[75] 	avg_time[75].real 	0
scalar barabasi_100nodes_network.client[76] 	hdistance[76].real 	1.0345940105742
scalar barabasi_100nodes_network.client[76] 	downloads[76].real 	1799271
scalar barabasi_100nodes_network.client[76] 	avg_time[76].real 	0
scalar barabasi_100nodes_network.client[77] 	hdistance[77].real 	1.1818548987451
scalar barabasi_100nodes_network.client[77] 	downloads[77].real 	1800012
scalar barabasi_100nodes_network.client[77] 	avg_time[77].real 	0
scalar barabasi_100nodes_network.client[78] 	hdistance[78].real 	1.4016412683368
scalar barabasi_100nodes_network.client[78] 	downloads[78].real 	1797756
scalar barabasi_100nodes_network.client[78] 	avg_time[78].real 	0
scalar barabasi_100nodes_network.client[79] 	hdistance[79].real 	1.1011536829836
scalar barabasi_100nodes_network.client[79] 	downloads[79].real 	1798501
scalar barabasi_100nodes_network.client[79] 	avg_time[79].real 	0
scalar barabasi_100nodes_network.client[80] 	hdistance[80].real 	1.585700167743
scalar barabasi_100nodes_network.client[80] 	downloads[80].real 	1802161
scalar barabasi_100nodes_network.client[80] 	avg_time[80].real 	0
scalar barabasi_100nodes_network.client[81] 	hdistance[81].real 	1.3396302183738
scalar barabasi_100nodes_network.client[81] 	downloads[81].real 	1797926
scalar barabasi_100nodes_network.client[81] 	avg_time[81].real 	0
scalar barabasi_100nodes_network.client[82] 	hdistance[82].real 	1.485822433206
scalar barabasi_100nodes_network.client[82] 	downloads[82].real 	1801508
scalar barabasi_100nodes_network.client[82] 	avg_time[82].real 	0
scalar barabasi_100nodes_network.client[83] 	hdistance[83].real 	1.5735892234358
scalar barabasi_100nodes_network.client[83] 	downloads[83].real 	1801242
scalar barabasi_100nodes_network.client[83] 	avg_time[83].real 	0
scalar barabasi_100nodes_network.client[84] 	hdistance[84].real 	1.394546166297
scalar barabasi_100nodes_network.client[84] 	downloads[84].real 	1800935
scalar barabasi_100nodes_network.client[84] 	avg_time[84].real 	0
scalar barabasi_100nodes_network.client[85] 	hdistance[85].real 	1.131741571006
scalar barabasi_100nodes_network.client[85] 	downloads[85].real 	1800897
scalar barabasi_100nodes_network.client[85] 	avg_time[85].real 	0
scalar barabasi_100nodes_network.client[86] 	hdistance[86].real 	1.5687015838247
scalar barabasi_100nodes_network.client[86] 	downloads[86].real 	1799631
scalar barabasi_100nodes_network.client[86] 	avg_time[86].real 	0
scalar barabasi_100nodes_network.client[87] 	hdistance[87].real 	1.5951062860445
scalar barabasi_100nodes_network.client[87] 	downloads[87].real 	1799860
scalar barabasi_100nodes_network.client[87] 	avg_time[87].real 	0
scalar barabasi_100nodes_network.client[88] 	hdistance[88].real 	1.3879405933659
scalar barabasi_100nodes_network.client[88] 	downloads[88].real 	1799193
scalar barabasi_100nodes_network.client[88] 	avg_time[88].real 	0
scalar barabasi_100nodes_network.client[89] 	hdistance[89].real 	1.5880688299584
scalar barabasi_100nodes_network.client[89] 	downloads[89].real 	1801483
scalar barabasi_100nodes_network.client[89] 	avg_time[89].real 	0
scalar barabasi_100nodes_network.client[90] 	hdistance[90].real 	1.1597321403762
scalar barabasi_100nodes_network.client[90] 	downloads[90].real 	1799450
scalar barabasi_100nodes_network.client[90] 	avg_time[90].real 	0
scalar barabasi_100nodes_network.client[91] 	hdistance[91].real 	1.3418618618619
scalar barabasi_100nodes_network.client[91] 	downloads[91].real 	1798200
scalar barabasi_100nodes_network.client[91] 	avg_time[91].real 	0
scalar barabasi_100nodes_network.client[92] 	hdistance[92].real 	1.6076669535126
scalar barabasi_100nodes_network.client[92] 	downloads[92].real 	1800037
scalar barabasi_100nodes_network.client[92] 	avg_time[92].real 	0
scalar barabasi_100nodes_network.client[93] 	hdistance[93].real 	0.92216536867312
scalar barabasi_100nodes_network.client[93] 	downloads[93].real 	1800728
scalar barabasi_100nodes_network.client[93] 	avg_time[93].real 	0
scalar barabasi_100nodes_network.client[94] 	hdistance[94].real 	1.1689243660968
scalar barabasi_100nodes_network.client[94] 	downloads[94].real 	1799841
scalar barabasi_100nodes_network.client[94] 	avg_time[94].real 	0
scalar barabasi_100nodes_network.client[95] 	hdistance[95].real 	1.2208878588061
scalar barabasi_100nodes_network.client[95] 	downloads[95].real 	1798777
scalar barabasi_100nodes_network.client[95] 	avg_time[95].real 	0
scalar barabasi_100nodes_network.client[96] 	hdistance[96].real 	1.2729685784566
scalar barabasi_100nodes_network.client[96] 	downloads[96].real 	1798925
scalar barabasi_100nodes_network.client[96] 	avg_time[96].real 	0
scalar barabasi_100nodes_network.client[97] 	hdistance[97].real 	1.5836008280626
scalar barabasi_100nodes_network.client[97] 	downloads[97].real 	1800347
scalar barabasi_100nodes_network.client[97] 	avg_time[97].real 	0
scalar barabasi_100nodes_network.client[98] 	hdistance[98].real 	1.485358425651
scalar barabasi_100nodes_network.client[98] 	downloads[98].real 	1797416
scalar barabasi_100nodes_network.client[98] 	avg_time[98].real 	0
scalar barabasi_100nodes_network.client[99] 	hdistance[99].real 	1.3900485299205
scalar barabasi_100nodes_network.client[99] 	downloads[99].real 	1798066
scalar barabasi_100nodes_network.client[99] 	avg_time[99].real 	0
