version 2
run General-15-20141030-19:19:56-5071
attr D costaware0.01
attr F nrr
attr R lru
attr a 1
attr configname General
attr csize 1e3
attr ctlg 1e5
attr datetime 20141030-19:19:56
attr experiment General
attr inifile omnetpp.ini
attr iterationvars "$rep=8, $lambda=100, $a=1, $ctlg=1e5, $F=nrr, $ttl=10, $D=costaware0.01, $R=lru, $csize=1e3, $window=60, $variance=0.05, $mytime=1800, $kappa=1, $priceratiovalue=10, $pricebits=0"
attr iterationvars2 "$rep=8, $lambda=100, $a=1, $ctlg=1e5, $F=nrr, $ttl=10, $D=costaware0.01, $R=lru, $csize=1e3, $window=60, $variance=0.05, $mytime=1800, $kappa=1, $priceratiovalue=10, $pricebits=0, $repetition=0"
attr kappa 1
attr lambda 100
attr measurement "$rep=8, $lambda=100, $a=1, $ctlg=1e5, $F=nrr, $ttl=10, $D=costaware0.01, $R=lru, $csize=1e3, $window=60, $variance=0.05, $mytime=1800, $kappa=1, $priceratiovalue=10, $pricebits=0"
attr mytime 1800
attr network networks.ws${rep}_network
attr pricebits 0
attr priceratiovalue 10
attr processid 5071
attr rep 8
attr repetition 0
attr replication #0
attr resultdir results
attr runnumber 15
attr seedset 8
attr ttl 10
attr variance 0.05
attr window 60

scalar . 	a 	1
scalar . 	csize 	1e3
scalar . 	ctlg 	1e5
scalar . 	kappa 	1
scalar . 	lambda 	100
scalar . 	mytime 	1800
scalar . 	pricebits 	0
scalar . 	priceratiovalue 	10
scalar . 	rep 	8
scalar . 	ttl 	10
scalar . 	variance 	0.05
scalar . 	window 	60
scalar ws8_network.content_distribution 	repo-0 	4
scalar ws8_network.content_distribution 	repo-1 	15
scalar ws8_network.content_distribution 	repo-2 	12
scalar ws8_network.content_distribution 	client-0 	8
scalar ws8_network.content_distribution 	client-1 	4
scalar ws8_network.content_distribution 	client-2 	20
scalar ws8_network.content_distribution 	repo-0_card 	33476
scalar ws8_network.content_distribution 	repo-0_price 	1
scalar ws8_network.content_distribution 	repo-1_card 	33258
scalar ws8_network.content_distribution 	repo-1_price 	0
scalar ws8_network.content_distribution 	repo-2_card 	33266
scalar ws8_network.content_distribution 	repo-2_price 	10
scalar ws8_network.statistics 	repo_popularity[0] 	0.27308552772926
scalar ws8_network.statistics 	repo_popularity[1] 	0.42673410384757
scalar ws8_network.statistics 	repo_popularity[2] 	0.30018036842319
scalar ws8_network.statistics 	stabilization_time 	36060
scalar ws8_network.statistics 	p_hit 	0.079933883530478
scalar ws8_network.statistics 	interests 	74441.636363636
scalar ws8_network.statistics 	data 	49955.863636364
scalar ws8_network.statistics 	hdistance 	2.8260990709408
scalar ws8_network.statistics 	avg_time 	0.010661323859
scalar ws8_network.statistics 	downloads 	532608
scalar ws8_network.statistics 	total_cost 	898288
scalar ws8_network.statistics 	total_replicas 	100000
scalar ws8_network.statistics 	inner_hit 	0.25262669730834
scalar ws8_network.statistics 	interests_sent 	538681
scalar ws8_network.node[0].core_layer 	interests[0] 	0
scalar ws8_network.node[0].core_layer 	data[0] 	0
scalar ws8_network.node[0].core_layer 	repo_int[0] 	398057
scalar ws8_network.node[0].content_store 	p_hit[0] 	-nan
scalar ws8_network.node[0].content_store 	hits[0] 	0
scalar ws8_network.node[0].content_store 	misses[0] 	0
scalar ws8_network.node[0].content_store 	decision_yes[0] 	0
scalar ws8_network.node[0].content_store 	decision_no[0] 	0
scalar ws8_network.node[0].content_store 	decision_ratio[0] 	0
scalar ws8_network.node[0].content_store 	correction_factor[0] 	0.0027225701061802
scalar ws8_network.node[0].content_store 	kappa[0] 	1
scalar ws8_network.node[1].core_layer 	interests[1] 	90316
scalar ws8_network.node[1].core_layer 	data[1] 	81999
scalar ws8_network.node[1].content_store 	p_hit[1] 	0.092087780681164
scalar ws8_network.node[1].content_store 	hits[1] 	8317
scalar ws8_network.node[1].content_store 	misses[1] 	81999
scalar ws8_network.node[1].content_store 	decision_yes[1] 	767
scalar ws8_network.node[1].content_store 	decision_no[1] 	81232
scalar ws8_network.node[1].content_store 	decision_ratio[1] 	0.009353772606983
scalar ws8_network.node[1].content_store 	correction_factor[1] 	0.0027225701061802
scalar ws8_network.node[1].content_store 	kappa[1] 	1
scalar ws8_network.node[2].core_layer 	interests[2] 	0
scalar ws8_network.node[2].core_layer 	data[2] 	0
scalar ws8_network.node[2].content_store 	p_hit[2] 	-nan
scalar ws8_network.node[2].content_store 	hits[2] 	0
scalar ws8_network.node[2].content_store 	misses[2] 	0
scalar ws8_network.node[2].content_store 	decision_yes[2] 	0
scalar ws8_network.node[2].content_store 	decision_no[2] 	0
scalar ws8_network.node[2].content_store 	decision_ratio[2] 	0
scalar ws8_network.node[2].content_store 	correction_factor[2] 	0.0027225701061802
scalar ws8_network.node[2].content_store 	kappa[2] 	1
scalar ws8_network.node[3].core_layer 	interests[3] 	0
scalar ws8_network.node[3].core_layer 	data[3] 	0
scalar ws8_network.node[3].content_store 	p_hit[3] 	-nan
scalar ws8_network.node[3].content_store 	hits[3] 	0
scalar ws8_network.node[3].content_store 	misses[3] 	0
scalar ws8_network.node[3].content_store 	decision_yes[3] 	0
scalar ws8_network.node[3].content_store 	decision_no[3] 	0
scalar ws8_network.node[3].content_store 	decision_ratio[3] 	0
scalar ws8_network.node[3].content_store 	correction_factor[3] 	0.0027225701061802
scalar ws8_network.node[3].content_store 	kappa[3] 	1
scalar ws8_network.node[4].core_layer 	interests[4] 	263628
scalar ws8_network.node[4].core_layer 	repo_load[4] 	96688
scalar ws8_network.node[4].core_layer 	data[4] 	126833
scalar ws8_network.node[4].content_store 	p_hit[4] 	0.14237486154733
scalar ws8_network.node[4].content_store 	hits[4] 	37534
scalar ws8_network.node[4].content_store 	misses[4] 	226094
scalar ws8_network.node[4].content_store 	decision_yes[4] 	995
scalar ws8_network.node[4].content_store 	decision_no[4] 	222526
scalar ws8_network.node[4].content_store 	decision_ratio[4] 	0.0044514833058191
scalar ws8_network.node[4].content_store 	correction_factor[4] 	0.0027225701061802
scalar ws8_network.node[4].content_store 	kappa[4] 	1
scalar ws8_network.node[5].core_layer 	interests[5] 	0
scalar ws8_network.node[5].core_layer 	data[5] 	0
scalar ws8_network.node[5].content_store 	p_hit[5] 	-nan
scalar ws8_network.node[5].content_store 	hits[5] 	0
scalar ws8_network.node[5].content_store 	misses[5] 	0
scalar ws8_network.node[5].content_store 	decision_yes[5] 	0
scalar ws8_network.node[5].content_store 	decision_no[5] 	0
scalar ws8_network.node[5].content_store 	decision_ratio[5] 	0
scalar ws8_network.node[5].content_store 	correction_factor[5] 	0.0027225701061802
scalar ws8_network.node[5].content_store 	kappa[5] 	1
scalar ws8_network.node[6].core_layer 	interests[6] 	136336
scalar ws8_network.node[6].core_layer 	data[6] 	126743
scalar ws8_network.node[6].content_store 	p_hit[6] 	0.070362926886516
scalar ws8_network.node[6].content_store 	hits[6] 	9593
scalar ws8_network.node[6].content_store 	misses[6] 	126743
scalar ws8_network.node[6].content_store 	decision_yes[6] 	87
scalar ws8_network.node[6].content_store 	decision_no[6] 	126656
scalar ws8_network.node[6].content_store 	decision_ratio[6] 	0.00068642844180744
scalar ws8_network.node[6].content_store 	correction_factor[6] 	0.0027225701061802
scalar ws8_network.node[6].content_store 	kappa[6] 	1
scalar ws8_network.node[7].core_layer 	interests[7] 	116776
scalar ws8_network.node[7].core_layer 	data[7] 	111565
scalar ws8_network.node[7].content_store 	p_hit[7] 	0.04449544426937
scalar ws8_network.node[7].content_store 	hits[7] 	5196
scalar ws8_network.node[7].content_store 	misses[7] 	111580
scalar ws8_network.node[7].content_store 	decision_yes[7] 	1523
scalar ws8_network.node[7].content_store 	decision_no[7] 	110042
scalar ws8_network.node[7].content_store 	decision_ratio[7] 	0.013651234706225
scalar ws8_network.node[7].content_store 	correction_factor[7] 	0.0027225701061802
scalar ws8_network.node[7].content_store 	kappa[7] 	1
scalar ws8_network.node[8].core_layer 	interests[8] 	352769
scalar ws8_network.node[8].core_layer 	data[8] 	317276
scalar ws8_network.node[8].content_store 	p_hit[8] 	0.087711788734271
scalar ws8_network.node[8].content_store 	hits[8] 	30942
scalar ws8_network.node[8].content_store 	misses[8] 	321827
scalar ws8_network.node[8].content_store 	decision_yes[8] 	798
scalar ws8_network.node[8].content_store 	decision_no[8] 	316478
scalar ws8_network.node[8].content_store 	decision_ratio[8] 	0.0025151603020714
scalar ws8_network.node[8].content_store 	correction_factor[8] 	0.0027225701061802
scalar ws8_network.node[8].content_store 	kappa[8] 	1
scalar ws8_network.node[9].core_layer 	interests[9] 	146684
scalar ws8_network.node[9].core_layer 	data[9] 	130553
scalar ws8_network.node[9].content_store 	p_hit[9] 	0.10993700744457
scalar ws8_network.node[9].content_store 	hits[9] 	16126
scalar ws8_network.node[9].content_store 	misses[9] 	130558
scalar ws8_network.node[9].content_store 	decision_yes[9] 	726
scalar ws8_network.node[9].content_store 	decision_no[9] 	129827
scalar ws8_network.node[9].content_store 	decision_ratio[9] 	0.0055609599166622
scalar ws8_network.node[9].content_store 	correction_factor[9] 	0.0027225701061802
scalar ws8_network.node[9].content_store 	kappa[9] 	1
scalar ws8_network.node[10].core_layer 	interests[10] 	0
scalar ws8_network.node[10].core_layer 	data[10] 	0
scalar ws8_network.node[10].content_store 	p_hit[10] 	-nan
scalar ws8_network.node[10].content_store 	hits[10] 	0
scalar ws8_network.node[10].content_store 	misses[10] 	0
scalar ws8_network.node[10].content_store 	decision_yes[10] 	0
scalar ws8_network.node[10].content_store 	decision_no[10] 	0
scalar ws8_network.node[10].content_store 	decision_ratio[10] 	0
scalar ws8_network.node[10].content_store 	correction_factor[10] 	0.0027225701061802
scalar ws8_network.node[10].content_store 	kappa[10] 	1
scalar ws8_network.node[11].core_layer 	interests[11] 	34762
scalar ws8_network.node[11].core_layer 	data[11] 	29953
scalar ws8_network.node[11].content_store 	p_hit[11] 	0.13834071687475
scalar ws8_network.node[11].content_store 	hits[11] 	4809
scalar ws8_network.node[11].content_store 	misses[11] 	29953
scalar ws8_network.node[11].content_store 	decision_yes[11] 	743
scalar ws8_network.node[11].content_store 	decision_no[11] 	29210
scalar ws8_network.node[11].content_store 	decision_ratio[11] 	0.02480552866157
scalar ws8_network.node[11].content_store 	correction_factor[11] 	0.0027225701061802
scalar ws8_network.node[11].content_store 	kappa[11] 	1
scalar ws8_network.node[12].core_layer 	interests[12] 	90841
scalar ws8_network.node[12].core_layer 	repo_load[12] 	80160
scalar ws8_network.node[12].core_layer 	data[12] 	0
scalar ws8_network.node[12].content_store 	p_hit[12] 	0.11757906672097
scalar ws8_network.node[12].content_store 	hits[12] 	10681
scalar ws8_network.node[12].content_store 	misses[12] 	80160
scalar ws8_network.node[12].content_store 	decision_yes[12] 	2205
scalar ws8_network.node[12].content_store 	decision_no[12] 	77955
scalar ws8_network.node[12].content_store 	decision_ratio[12] 	0.02750748502994
scalar ws8_network.node[12].content_store 	correction_factor[12] 	0.0027225701061802
scalar ws8_network.node[12].content_store 	kappa[12] 	1
scalar ws8_network.node[13].core_layer 	interests[13] 	0
scalar ws8_network.node[13].core_layer 	data[13] 	0
scalar ws8_network.node[13].content_store 	p_hit[13] 	-nan
scalar ws8_network.node[13].content_store 	hits[13] 	0
scalar ws8_network.node[13].content_store 	misses[13] 	0
scalar ws8_network.node[13].content_store 	decision_yes[13] 	0
scalar ws8_network.node[13].content_store 	decision_no[13] 	0
scalar ws8_network.node[13].content_store 	decision_ratio[13] 	0
scalar ws8_network.node[13].content_store 	correction_factor[13] 	0.0027225701061802
scalar ws8_network.node[13].content_store 	kappa[13] 	1
scalar ws8_network.node[14].core_layer 	interests[14] 	0
scalar ws8_network.node[14].core_layer 	data[14] 	0
scalar ws8_network.node[14].content_store 	p_hit[14] 	-nan
scalar ws8_network.node[14].content_store 	hits[14] 	0
scalar ws8_network.node[14].content_store 	misses[14] 	0
scalar ws8_network.node[14].content_store 	decision_yes[14] 	0
scalar ws8_network.node[14].content_store 	decision_no[14] 	0
scalar ws8_network.node[14].content_store 	decision_ratio[14] 	0
scalar ws8_network.node[14].content_store 	correction_factor[14] 	0.0027225701061802
scalar ws8_network.node[14].content_store 	kappa[14] 	1
scalar ws8_network.node[15].core_layer 	interests[15] 	221209
scalar ws8_network.node[15].core_layer 	repo_load[15] 	221209
scalar ws8_network.node[15].core_layer 	data[15] 	0
scalar ws8_network.node[15].content_store 	p_hit[15] 	0
scalar ws8_network.node[15].content_store 	hits[15] 	0
scalar ws8_network.node[15].content_store 	misses[15] 	221209
scalar ws8_network.node[15].content_store 	decision_yes[15] 	0
scalar ws8_network.node[15].content_store 	decision_no[15] 	221209
scalar ws8_network.node[15].content_store 	decision_ratio[15] 	0
scalar ws8_network.node[15].content_store 	correction_factor[15] 	0.0027225701061802
scalar ws8_network.node[15].content_store 	kappa[15] 	1
scalar ws8_network.node[16].core_layer 	interests[16] 	0
scalar ws8_network.node[16].core_layer 	data[16] 	0
scalar ws8_network.node[16].content_store 	p_hit[16] 	-nan
scalar ws8_network.node[16].content_store 	hits[16] 	0
scalar ws8_network.node[16].content_store 	misses[16] 	0
scalar ws8_network.node[16].content_store 	decision_yes[16] 	0
scalar ws8_network.node[16].content_store 	decision_no[16] 	0
scalar ws8_network.node[16].content_store 	decision_ratio[16] 	0
scalar ws8_network.node[16].content_store 	correction_factor[16] 	0.0027225701061802
scalar ws8_network.node[16].content_store 	kappa[16] 	1
scalar ws8_network.node[17].core_layer 	interests[17] 	0
scalar ws8_network.node[17].core_layer 	data[17] 	0
scalar ws8_network.node[17].content_store 	p_hit[17] 	-nan
scalar ws8_network.node[17].content_store 	hits[17] 	0
scalar ws8_network.node[17].content_store 	misses[17] 	0
scalar ws8_network.node[17].content_store 	decision_yes[17] 	0
scalar ws8_network.node[17].content_store 	decision_no[17] 	0
scalar ws8_network.node[17].content_store 	decision_ratio[17] 	0
scalar ws8_network.node[17].content_store 	correction_factor[17] 	0.0027225701061802
scalar ws8_network.node[17].content_store 	kappa[17] 	1
scalar ws8_network.node[18].core_layer 	interests[18] 	0
scalar ws8_network.node[18].core_layer 	data[18] 	0
scalar ws8_network.node[18].content_store 	p_hit[18] 	-nan
scalar ws8_network.node[18].content_store 	hits[18] 	0
scalar ws8_network.node[18].content_store 	misses[18] 	0
scalar ws8_network.node[18].content_store 	decision_yes[18] 	0
scalar ws8_network.node[18].content_store 	decision_no[18] 	0
scalar ws8_network.node[18].content_store 	decision_ratio[18] 	0
scalar ws8_network.node[18].content_store 	correction_factor[18] 	0.0027225701061802
scalar ws8_network.node[18].content_store 	kappa[18] 	1
scalar ws8_network.node[19].core_layer 	interests[19] 	0
scalar ws8_network.node[19].core_layer 	data[19] 	0
scalar ws8_network.node[19].content_store 	p_hit[19] 	-nan
scalar ws8_network.node[19].content_store 	hits[19] 	0
scalar ws8_network.node[19].content_store 	misses[19] 	0
scalar ws8_network.node[19].content_store 	decision_yes[19] 	0
scalar ws8_network.node[19].content_store 	decision_no[19] 	0
scalar ws8_network.node[19].content_store 	decision_ratio[19] 	0
scalar ws8_network.node[19].content_store 	correction_factor[19] 	0.0027225701061802
scalar ws8_network.node[19].content_store 	kappa[19] 	1
scalar ws8_network.node[20].core_layer 	interests[20] 	184395
scalar ws8_network.node[20].core_layer 	data[20] 	174107
scalar ws8_network.node[20].content_store 	p_hit[20] 	0.041817836709238
scalar ws8_network.node[20].content_store 	hits[20] 	7711
scalar ws8_network.node[20].content_store 	misses[20] 	176684
scalar ws8_network.node[20].content_store 	decision_yes[20] 	777
scalar ws8_network.node[20].content_store 	decision_no[20] 	173330
scalar ws8_network.node[20].content_store 	decision_ratio[20] 	0.0044627728925316
scalar ws8_network.node[20].content_store 	correction_factor[20] 	0.0027225701061802
scalar ws8_network.node[20].content_store 	kappa[20] 	1
scalar ws8_network.node[21].core_layer 	interests[21] 	0
scalar ws8_network.node[21].core_layer 	data[21] 	0
scalar ws8_network.node[21].content_store 	p_hit[21] 	-nan
scalar ws8_network.node[21].content_store 	hits[21] 	0
scalar ws8_network.node[21].content_store 	misses[21] 	0
scalar ws8_network.node[21].content_store 	decision_yes[21] 	0
scalar ws8_network.node[21].content_store 	decision_no[21] 	0
scalar ws8_network.node[21].content_store 	decision_ratio[21] 	0
scalar ws8_network.node[21].content_store 	correction_factor[21] 	0.0027225701061802
scalar ws8_network.node[21].content_store 	kappa[21] 	1
scalar ws8_network.client[4] 	hdistance[4] 	2.6543121600775
scalar ws8_network.client[4] 	downloads[4] 	177614
scalar ws8_network.client[4] 	avg_time[4] 	0.009684748121
scalar ws8_network.client[4] 	interests_sent[4] 	180187
scalar ws8_network.client[8] 	hdistance[8] 	2.3135213702074
scalar ws8_network.client[8] 	downloads[8] 	178192
scalar ws8_network.client[8] 	avg_time[8] 	0.008082580684
scalar ws8_network.client[8] 	interests_sent[8] 	179115
scalar ws8_network.client[20] 	hdistance[20] 	3.5104636825375
scalar ws8_network.client[20] 	downloads[20] 	176802
scalar ws8_network.client[20] 	avg_time[20] 	0.014216642773
scalar ws8_network.client[20] 	interests_sent[20] 	179379
