version 2
run General-2-20141031-15:49:24-19052
attr D costaware0.01
attr F nrr
attr R lru
attr a 1
attr configname General
attr csize 1e3
attr ctlg 1e5
attr datetime 20141031-15:49:24
attr experiment General
attr inifile omnetpp.ini
attr iterationvars "$rep=22, $lambda=100, $a=1, $ctlg=1e5, $F=nrr, $ttl=10, $D=costaware0.01, $R=lru, $csize=1e3, $window=60, $variance=0.05, $mytime=1800, $kappa=1, $priceratiovalue=10, $pricebits=0"
attr iterationvars2 "$rep=22, $lambda=100, $a=1, $ctlg=1e5, $F=nrr, $ttl=10, $D=costaware0.01, $R=lru, $csize=1e3, $window=60, $variance=0.05, $mytime=1800, $kappa=1, $priceratiovalue=10, $pricebits=0, $repetition=0"
attr kappa 1
attr lambda 100
attr measurement "$rep=22, $lambda=100, $a=1, $ctlg=1e5, $F=nrr, $ttl=10, $D=costaware0.01, $R=lru, $csize=1e3, $window=60, $variance=0.05, $mytime=1800, $kappa=1, $priceratiovalue=10, $pricebits=0"
attr mytime 1800
attr network networks.ws${rep}_network
attr pricebits 0
attr priceratiovalue 10
attr processid 19052
attr rep 22
attr repetition 0
attr replication #0
attr resultdir results
attr runnumber 2
attr seedset 22
attr ttl 10
attr variance 0.05
attr window 60

scalar . 	a 	1
scalar . 	csize 	1e3
scalar . 	ctlg 	1e5
scalar . 	kappa 	1
scalar . 	lambda 	100
scalar . 	mytime 	1800
scalar . 	pricebits 	0
scalar . 	priceratiovalue 	10
scalar . 	rep 	22
scalar . 	ttl 	10
scalar . 	variance 	0.05
scalar . 	window 	60
scalar ws22_network.content_distribution 	repo-0 	3
scalar ws22_network.content_distribution 	repo-1 	21
scalar ws22_network.content_distribution 	repo-2 	10
scalar ws22_network.content_distribution 	client-0 	7
scalar ws22_network.content_distribution 	client-1 	9
scalar ws22_network.content_distribution 	client-2 	3
scalar ws22_network.content_distribution 	repo-0_card 	33273
scalar ws22_network.content_distribution 	repo-0_price 	10
scalar ws22_network.content_distribution 	repo-1_card 	33203
scalar ws22_network.content_distribution 	repo-1_price 	1
scalar ws22_network.content_distribution 	repo-2_card 	33524
scalar ws22_network.content_distribution 	repo-2_price 	0
scalar ws22_network.statistics 	repo_popularity[0] 	0.31628375467499
scalar ws22_network.statistics 	repo_popularity[1] 	0.29913680135542
scalar ws22_network.statistics 	repo_popularity[2] 	0.38457944396961
scalar ws22_network.statistics 	stabilization_time 	36060
scalar ws22_network.statistics 	p_hit 	0.096716747202278
scalar ws22_network.statistics 	interests 	70625.636363636
scalar ws22_network.statistics 	data 	46034.636363636
scalar ws22_network.statistics 	hdistance 	2.6158826812092
scalar ws22_network.statistics 	avg_time 	0.009772971909
scalar ws22_network.statistics 	downloads 	534989
scalar ws22_network.statistics 	total_cost 	1036163
scalar ws22_network.statistics 	total_replicas 	100000
scalar ws22_network.statistics 	inner_hit 	0.2840245313455
scalar ws22_network.statistics 	interests_sent 	541003
scalar ws22_network.node[0].core_layer 	interests[0] 	184757
scalar ws22_network.node[0].core_layer 	data[0] 	151323
scalar ws22_network.node[0].core_layer 	repo_int[0] 	383039
scalar ws22_network.node[0].content_store 	p_hit[0] 	0.18096202038353
scalar ws22_network.node[0].content_store 	hits[0] 	33434
scalar ws22_network.node[0].content_store 	misses[0] 	151323
scalar ws22_network.node[0].content_store 	decision_yes[0] 	825
scalar ws22_network.node[0].content_store 	decision_no[0] 	150498
scalar ws22_network.node[0].content_store 	decision_ratio[0] 	0.0054519141174838
scalar ws22_network.node[0].content_store 	correction_factor[0] 	0.0027225701061802
scalar ws22_network.node[0].content_store 	kappa[0] 	1
scalar ws22_network.node[1].core_layer 	interests[1] 	96352
scalar ws22_network.node[1].core_layer 	data[1] 	83491
scalar ws22_network.node[1].content_store 	p_hit[1] 	0.13347932580538
scalar ws22_network.node[1].content_store 	hits[1] 	12861
scalar ws22_network.node[1].content_store 	misses[1] 	83491
scalar ws22_network.node[1].content_store 	decision_yes[1] 	935
scalar ws22_network.node[1].content_store 	decision_no[1] 	82556
scalar ws22_network.node[1].content_store 	decision_ratio[1] 	0.011198811847984
scalar ws22_network.node[1].content_store 	correction_factor[1] 	0.0027225701061802
scalar ws22_network.node[1].content_store 	kappa[1] 	1
scalar ws22_network.node[2].core_layer 	interests[2] 	0
scalar ws22_network.node[2].core_layer 	data[2] 	0
scalar ws22_network.node[2].content_store 	p_hit[2] 	-nan
scalar ws22_network.node[2].content_store 	hits[2] 	0
scalar ws22_network.node[2].content_store 	misses[2] 	0
scalar ws22_network.node[2].content_store 	decision_yes[2] 	0
scalar ws22_network.node[2].content_store 	decision_no[2] 	0
scalar ws22_network.node[2].content_store 	decision_ratio[2] 	0
scalar ws22_network.node[2].content_store 	correction_factor[2] 	0.0027225701061802
scalar ws22_network.node[2].content_store 	kappa[2] 	1
scalar ws22_network.node[3].core_layer 	interests[3] 	326569
scalar ws22_network.node[3].core_layer 	repo_load[3] 	95010
scalar ws22_network.node[3].core_layer 	data[3] 	188016
scalar ws22_network.node[3].content_store 	p_hit[3] 	0.12628877817552
scalar ws22_network.node[3].content_store 	hits[3] 	41242
scalar ws22_network.node[3].content_store 	misses[3] 	285327
scalar ws22_network.node[3].content_store 	decision_yes[3] 	2590
scalar ws22_network.node[3].content_store 	decision_no[3] 	280436
scalar ws22_network.node[3].content_store 	decision_ratio[3] 	0.0091511027255446
scalar ws22_network.node[3].content_store 	correction_factor[3] 	0.0027225701061802
scalar ws22_network.node[3].content_store 	kappa[3] 	1
scalar ws22_network.node[4].core_layer 	interests[4] 	3823
scalar ws22_network.node[4].core_layer 	data[4] 	3823
scalar ws22_network.node[4].content_store 	p_hit[4] 	0
scalar ws22_network.node[4].content_store 	hits[4] 	0
scalar ws22_network.node[4].content_store 	misses[4] 	3823
scalar ws22_network.node[4].content_store 	decision_yes[4] 	0
scalar ws22_network.node[4].content_store 	decision_no[4] 	3823
scalar ws22_network.node[4].content_store 	decision_ratio[4] 	0
scalar ws22_network.node[4].content_store 	correction_factor[4] 	0.0027225701061802
scalar ws22_network.node[4].content_store 	kappa[4] 	1
scalar ws22_network.node[5].core_layer 	interests[5] 	0
scalar ws22_network.node[5].core_layer 	data[5] 	0
scalar ws22_network.node[5].content_store 	p_hit[5] 	-nan
scalar ws22_network.node[5].content_store 	hits[5] 	0
scalar ws22_network.node[5].content_store 	misses[5] 	0
scalar ws22_network.node[5].content_store 	decision_yes[5] 	0
scalar ws22_network.node[5].content_store 	decision_no[5] 	0
scalar ws22_network.node[5].content_store 	decision_ratio[5] 	0
scalar ws22_network.node[5].content_store 	correction_factor[5] 	0.0027225701061802
scalar ws22_network.node[5].content_store 	kappa[5] 	1
scalar ws22_network.node[6].core_layer 	interests[6] 	0
scalar ws22_network.node[6].core_layer 	data[6] 	0
scalar ws22_network.node[6].content_store 	p_hit[6] 	-nan
scalar ws22_network.node[6].content_store 	hits[6] 	0
scalar ws22_network.node[6].content_store 	misses[6] 	0
scalar ws22_network.node[6].content_store 	decision_yes[6] 	0
scalar ws22_network.node[6].content_store 	decision_no[6] 	0
scalar ws22_network.node[6].content_store 	decision_ratio[6] 	0
scalar ws22_network.node[6].content_store 	correction_factor[6] 	0.0027225701061802
scalar ws22_network.node[6].content_store 	kappa[6] 	1
scalar ws22_network.node[7].core_layer 	interests[7] 	202363
scalar ws22_network.node[7].core_layer 	data[7] 	190221
scalar ws22_network.node[7].content_store 	p_hit[7] 	0.045685229019139
scalar ws22_network.node[7].content_store 	hits[7] 	9245
scalar ws22_network.node[7].content_store 	misses[7] 	193118
scalar ws22_network.node[7].content_store 	decision_yes[7] 	829
scalar ws22_network.node[7].content_store 	decision_no[7] 	189392
scalar ws22_network.node[7].content_store 	decision_ratio[7] 	0.004358088749402
scalar ws22_network.node[7].content_store 	correction_factor[7] 	0.0027225701061802
scalar ws22_network.node[7].content_store 	kappa[7] 	1
scalar ws22_network.node[8].core_layer 	interests[8] 	45704
scalar ws22_network.node[8].core_layer 	data[8] 	34195
scalar ws22_network.node[8].content_store 	p_hit[8] 	0.25181603360756
scalar ws22_network.node[8].content_store 	hits[8] 	11509
scalar ws22_network.node[8].content_store 	misses[8] 	34195
scalar ws22_network.node[8].content_store 	decision_yes[8] 	77
scalar ws22_network.node[8].content_store 	decision_no[8] 	34118
scalar ws22_network.node[8].content_store 	decision_ratio[8] 	0.0022517911975435
scalar ws22_network.node[8].content_store 	correction_factor[8] 	0.0027225701061802
scalar ws22_network.node[8].content_store 	kappa[8] 	1
scalar ws22_network.node[9].core_layer 	interests[9] 	197909
scalar ws22_network.node[9].core_layer 	data[9] 	184867
scalar ws22_network.node[9].content_store 	p_hit[9] 	0.053312380942757
scalar ws22_network.node[9].content_store 	hits[9] 	10551
scalar ws22_network.node[9].content_store 	misses[9] 	187358
scalar ws22_network.node[9].content_store 	decision_yes[9] 	874
scalar ws22_network.node[9].content_store 	decision_no[9] 	183993
scalar ws22_network.node[9].content_store 	decision_ratio[9] 	0.0047277231739575
scalar ws22_network.node[9].content_store 	correction_factor[9] 	0.0027225701061802
scalar ws22_network.node[9].content_store 	kappa[9] 	1
scalar ws22_network.node[10].core_layer 	interests[10] 	201966
scalar ws22_network.node[10].core_layer 	repo_load[10] 	201966
scalar ws22_network.node[10].core_layer 	data[10] 	0
scalar ws22_network.node[10].content_store 	p_hit[10] 	0
scalar ws22_network.node[10].content_store 	hits[10] 	0
scalar ws22_network.node[10].content_store 	misses[10] 	201966
scalar ws22_network.node[10].content_store 	decision_yes[10] 	0
scalar ws22_network.node[10].content_store 	decision_no[10] 	201966
scalar ws22_network.node[10].content_store 	decision_ratio[10] 	0
scalar ws22_network.node[10].content_store 	correction_factor[10] 	0.0027225701061802
scalar ws22_network.node[10].content_store 	kappa[10] 	1
scalar ws22_network.node[11].core_layer 	interests[11] 	0
scalar ws22_network.node[11].core_layer 	data[11] 	0
scalar ws22_network.node[11].content_store 	p_hit[11] 	-nan
scalar ws22_network.node[11].content_store 	hits[11] 	0
scalar ws22_network.node[11].content_store 	misses[11] 	0
scalar ws22_network.node[11].content_store 	decision_yes[11] 	0
scalar ws22_network.node[11].content_store 	decision_no[11] 	0
scalar ws22_network.node[11].content_store 	decision_ratio[11] 	0
scalar ws22_network.node[11].content_store 	correction_factor[11] 	0.0027225701061802
scalar ws22_network.node[11].content_store 	kappa[11] 	1
scalar ws22_network.node[12].core_layer 	interests[12] 	0
scalar ws22_network.node[12].core_layer 	data[12] 	0
scalar ws22_network.node[12].content_store 	p_hit[12] 	-nan
scalar ws22_network.node[12].content_store 	hits[12] 	0
scalar ws22_network.node[12].content_store 	misses[12] 	0
scalar ws22_network.node[12].content_store 	decision_yes[12] 	0
scalar ws22_network.node[12].content_store 	decision_no[12] 	0
scalar ws22_network.node[12].content_store 	decision_ratio[12] 	0
scalar ws22_network.node[12].content_store 	correction_factor[12] 	0.0027225701061802
scalar ws22_network.node[12].content_store 	kappa[12] 	1
scalar ws22_network.node[13].core_layer 	interests[13] 	0
scalar ws22_network.node[13].core_layer 	data[13] 	0
scalar ws22_network.node[13].content_store 	p_hit[13] 	-nan
scalar ws22_network.node[13].content_store 	hits[13] 	0
scalar ws22_network.node[13].content_store 	misses[13] 	0
scalar ws22_network.node[13].content_store 	decision_yes[13] 	0
scalar ws22_network.node[13].content_store 	decision_no[13] 	0
scalar ws22_network.node[13].content_store 	decision_ratio[13] 	0
scalar ws22_network.node[13].content_store 	correction_factor[13] 	0.0027225701061802
scalar ws22_network.node[13].content_store 	kappa[13] 	1
scalar ws22_network.node[14].core_layer 	interests[14] 	0
scalar ws22_network.node[14].core_layer 	data[14] 	0
scalar ws22_network.node[14].content_store 	p_hit[14] 	-nan
scalar ws22_network.node[14].content_store 	hits[14] 	0
scalar ws22_network.node[14].content_store 	misses[14] 	0
scalar ws22_network.node[14].content_store 	decision_yes[14] 	0
scalar ws22_network.node[14].content_store 	decision_no[14] 	0
scalar ws22_network.node[14].content_store 	decision_ratio[14] 	0
scalar ws22_network.node[14].content_store 	correction_factor[14] 	0.0027225701061802
scalar ws22_network.node[14].content_store 	kappa[14] 	1
scalar ws22_network.node[15].core_layer 	interests[15] 	0
scalar ws22_network.node[15].core_layer 	data[15] 	0
scalar ws22_network.node[15].content_store 	p_hit[15] 	-nan
scalar ws22_network.node[15].content_store 	hits[15] 	0
scalar ws22_network.node[15].content_store 	misses[15] 	0
scalar ws22_network.node[15].content_store 	decision_yes[15] 	0
scalar ws22_network.node[15].content_store 	decision_no[15] 	0
scalar ws22_network.node[15].content_store 	decision_ratio[15] 	0
scalar ws22_network.node[15].content_store 	correction_factor[15] 	0.0027225701061802
scalar ws22_network.node[15].content_store 	kappa[15] 	1
scalar ws22_network.node[16].core_layer 	interests[16] 	124713
scalar ws22_network.node[16].core_layer 	data[16] 	109240
scalar ws22_network.node[16].content_store 	p_hit[16] 	0.1240688621074
scalar ws22_network.node[16].content_store 	hits[16] 	15473
scalar ws22_network.node[16].content_store 	misses[16] 	109240
scalar ws22_network.node[16].content_store 	decision_yes[16] 	772
scalar ws22_network.node[16].content_store 	decision_no[16] 	108468
scalar ws22_network.node[16].content_store 	decision_ratio[16] 	0.0070670084218235
scalar ws22_network.node[16].content_store 	correction_factor[16] 	0.0027225701061802
scalar ws22_network.node[16].content_store 	kappa[16] 	1
scalar ws22_network.node[17].core_layer 	interests[17] 	0
scalar ws22_network.node[17].core_layer 	data[17] 	0
scalar ws22_network.node[17].content_store 	p_hit[17] 	-nan
scalar ws22_network.node[17].content_store 	hits[17] 	0
scalar ws22_network.node[17].content_store 	misses[17] 	0
scalar ws22_network.node[17].content_store 	decision_yes[17] 	0
scalar ws22_network.node[17].content_store 	decision_no[17] 	0
scalar ws22_network.node[17].content_store 	decision_ratio[17] 	0
scalar ws22_network.node[17].content_store 	correction_factor[17] 	0.0027225701061802
scalar ws22_network.node[17].content_store 	kappa[17] 	1
scalar ws22_network.node[18].core_layer 	interests[18] 	0
scalar ws22_network.node[18].core_layer 	data[18] 	0
scalar ws22_network.node[18].content_store 	p_hit[18] 	-nan
scalar ws22_network.node[18].content_store 	hits[18] 	0
scalar ws22_network.node[18].content_store 	misses[18] 	0
scalar ws22_network.node[18].content_store 	decision_yes[18] 	0
scalar ws22_network.node[18].content_store 	decision_no[18] 	0
scalar ws22_network.node[18].content_store 	decision_ratio[18] 	0
scalar ws22_network.node[18].content_store 	correction_factor[18] 	0.0027225701061802
scalar ws22_network.node[18].content_store 	kappa[18] 	1
scalar ws22_network.node[19].core_layer 	interests[19] 	0
scalar ws22_network.node[19].core_layer 	data[19] 	0
scalar ws22_network.node[19].content_store 	p_hit[19] 	-nan
scalar ws22_network.node[19].content_store 	hits[19] 	0
scalar ws22_network.node[19].content_store 	misses[19] 	0
scalar ws22_network.node[19].content_store 	decision_yes[19] 	0
scalar ws22_network.node[19].content_store 	decision_no[19] 	0
scalar ws22_network.node[19].content_store 	decision_ratio[19] 	0
scalar ws22_network.node[19].content_store 	correction_factor[19] 	0.0027225701061802
scalar ws22_network.node[19].content_store 	kappa[19] 	1
scalar ws22_network.node[20].core_layer 	interests[20] 	67585
scalar ws22_network.node[20].core_layer 	data[20] 	67586
scalar ws22_network.node[20].content_store 	p_hit[20] 	0
scalar ws22_network.node[20].content_store 	hits[20] 	0
scalar ws22_network.node[20].content_store 	misses[20] 	67585
scalar ws22_network.node[20].content_store 	decision_yes[20] 	0
scalar ws22_network.node[20].content_store 	decision_no[20] 	67586
scalar ws22_network.node[20].content_store 	decision_ratio[20] 	0
scalar ws22_network.node[20].content_store 	correction_factor[20] 	0.0027225701061802
scalar ws22_network.node[20].content_store 	kappa[20] 	1
scalar ws22_network.node[21].core_layer 	interests[21] 	102023
scalar ws22_network.node[21].core_layer 	repo_load[21] 	86063
scalar ws22_network.node[21].core_layer 	data[21] 	0
scalar ws22_network.node[21].content_store 	p_hit[21] 	0.15643531360576
scalar ws22_network.node[21].content_store 	hits[21] 	15960
scalar ws22_network.node[21].content_store 	misses[21] 	86063
scalar ws22_network.node[21].content_store 	decision_yes[21] 	258
scalar ws22_network.node[21].content_store 	decision_no[21] 	85805
scalar ws22_network.node[21].content_store 	decision_ratio[21] 	0.0029978039343272
scalar ws22_network.node[21].content_store 	correction_factor[21] 	0.0027225701061802
scalar ws22_network.node[21].content_store 	kappa[21] 	1
scalar ws22_network.client[3] 	hdistance[3] 	1.7232460773956
scalar ws22_network.client[3] 	downloads[3] 	178899
scalar ws22_network.client[3] 	avg_time[3] 	0.00500344104
scalar ws22_network.client[3] 	interests_sent[3] 	179939
scalar ws22_network.client[7] 	hdistance[7] 	3.1567302678426
scalar ws22_network.client[7] 	downloads[7] 	178351
scalar ws22_network.client[7] 	avg_time[7] 	0.012648026729
scalar ws22_network.client[7] 	interests_sent[7] 	180919
scalar ws22_network.client[9] 	hdistance[9] 	2.9676716983892
scalar ws22_network.client[9] 	downloads[9] 	177739
scalar ws22_network.client[9] 	avg_time[9] 	0.01166744796
scalar ws22_network.client[9] 	interests_sent[9] 	180145
