version 2
run General-7-20141031-12:05:28-7990
attr D costaware0.01
attr F nrr
attr R lru
attr a 1
attr configname General
attr csize 1e3
attr ctlg 1e5
attr datetime 20141031-12:05:28
attr experiment General
attr inifile omnetpp.ini
attr iterationvars "$rep=18, $lambda=100, $a=1, $ctlg=1e5, $F=nrr, $ttl=10, $D=costaware0.01, $R=lru, $csize=1e3, $window=60, $variance=0.05, $mytime=1800, $kappa=1, $priceratiovalue=10, $pricebits=0"
attr iterationvars2 "$rep=18, $lambda=100, $a=1, $ctlg=1e5, $F=nrr, $ttl=10, $D=costaware0.01, $R=lru, $csize=1e3, $window=60, $variance=0.05, $mytime=1800, $kappa=1, $priceratiovalue=10, $pricebits=0, $repetition=0"
attr kappa 1
attr lambda 100
attr measurement "$rep=18, $lambda=100, $a=1, $ctlg=1e5, $F=nrr, $ttl=10, $D=costaware0.01, $R=lru, $csize=1e3, $window=60, $variance=0.05, $mytime=1800, $kappa=1, $priceratiovalue=10, $pricebits=0"
attr mytime 1800
attr network networks.ws${rep}_network
attr pricebits 0
attr priceratiovalue 10
attr processid 7990
attr rep 18
attr repetition 0
attr replication #0
attr resultdir results
attr runnumber 7
attr seedset 18
attr ttl 10
attr variance 0.05
attr window 60

scalar . 	a 	1
scalar . 	csize 	1e3
scalar . 	ctlg 	1e5
scalar . 	kappa 	1
scalar . 	lambda 	100
scalar . 	mytime 	1800
scalar . 	pricebits 	0
scalar . 	priceratiovalue 	10
scalar . 	rep 	18
scalar . 	ttl 	10
scalar . 	variance 	0.05
scalar . 	window 	60
scalar ws18_network.content_distribution 	repo-0 	13
scalar ws18_network.content_distribution 	repo-1 	7
scalar ws18_network.content_distribution 	repo-2 	8
scalar ws18_network.content_distribution 	client-0 	5
scalar ws18_network.content_distribution 	client-1 	1
scalar ws18_network.content_distribution 	client-2 	16
scalar ws18_network.content_distribution 	repo-0_card 	33458
scalar ws18_network.content_distribution 	repo-0_price 	10
scalar ws18_network.content_distribution 	repo-1_card 	33219
scalar ws18_network.content_distribution 	repo-1_price 	1
scalar ws18_network.content_distribution 	repo-2_card 	33323
scalar ws18_network.content_distribution 	repo-2_price 	0
scalar ws18_network.statistics 	repo_popularity[0] 	0.43323683832893
scalar ws18_network.statistics 	repo_popularity[1] 	0.27229839117188
scalar ws18_network.statistics 	repo_popularity[2] 	0.2944647704992
scalar ws18_network.statistics 	stabilization_time 	36060
scalar ws18_network.statistics 	p_hit 	0.13613252795102
scalar ws18_network.statistics 	interests 	69419.318181818
scalar ws18_network.statistics 	data 	44838.272727273
scalar ws18_network.statistics 	hdistance 	2.4523826365017
scalar ws18_network.statistics 	avg_time 	0.009508216376
scalar ws18_network.statistics 	downloads 	536005
scalar ws18_network.statistics 	total_cost 	939760
scalar ws18_network.statistics 	total_replicas 	100000
scalar ws18_network.statistics 	inner_hit 	0.39004486898443
scalar ws18_network.statistics 	interests_sent 	540783
scalar ws18_network.node[0].core_layer 	interests[0] 	125384
scalar ws18_network.node[0].core_layer 	data[0] 	111665
scalar ws18_network.node[0].core_layer 	repo_int[0] 	326939
scalar ws18_network.node[0].content_store 	p_hit[0] 	0.10904102596823
scalar ws18_network.node[0].content_store 	hits[0] 	13672
scalar ws18_network.node[0].content_store 	misses[0] 	111712
scalar ws18_network.node[0].content_store 	decision_yes[0] 	148
scalar ws18_network.node[0].content_store 	decision_no[0] 	111517
scalar ws18_network.node[0].content_store 	decision_ratio[0] 	0.0013253929163122
scalar ws18_network.node[0].content_store 	correction_factor[0] 	0.0027225701061802
scalar ws18_network.node[0].content_store 	kappa[0] 	1
scalar ws18_network.node[1].core_layer 	interests[1] 	239440
scalar ws18_network.node[1].core_layer 	data[1] 	203957
scalar ws18_network.node[1].content_store 	p_hit[1] 	0.14211911125961
scalar ws18_network.node[1].content_store 	hits[1] 	34029
scalar ws18_network.node[1].content_store 	misses[1] 	205411
scalar ws18_network.node[1].content_store 	decision_yes[1] 	1686
scalar ws18_network.node[1].content_store 	decision_no[1] 	202271
scalar ws18_network.node[1].content_store 	decision_ratio[1] 	0.008266448319989
scalar ws18_network.node[1].content_store 	correction_factor[1] 	0.0027225701061802
scalar ws18_network.node[1].content_store 	kappa[1] 	1
scalar ws18_network.node[2].core_layer 	interests[2] 	17097
scalar ws18_network.node[2].core_layer 	data[2] 	17097
scalar ws18_network.node[2].content_store 	p_hit[2] 	0
scalar ws18_network.node[2].content_store 	hits[2] 	0
scalar ws18_network.node[2].content_store 	misses[2] 	17097
scalar ws18_network.node[2].content_store 	decision_yes[2] 	0
scalar ws18_network.node[2].content_store 	decision_no[2] 	17097
scalar ws18_network.node[2].content_store 	decision_ratio[2] 	0
scalar ws18_network.node[2].content_store 	correction_factor[2] 	0.0027225701061802
scalar ws18_network.node[2].content_store 	kappa[2] 	1
scalar ws18_network.node[3].core_layer 	interests[3] 	156060
scalar ws18_network.node[3].core_layer 	data[3] 	123180
scalar ws18_network.node[3].content_store 	p_hit[3] 	0.20401768550557
scalar ws18_network.node[3].content_store 	hits[3] 	31839
scalar ws18_network.node[3].content_store 	misses[3] 	124221
scalar ws18_network.node[3].content_store 	decision_yes[3] 	823
scalar ws18_network.node[3].content_store 	decision_no[3] 	122357
scalar ws18_network.node[3].content_store 	decision_ratio[3] 	0.0066812794284786
scalar ws18_network.node[3].content_store 	correction_factor[3] 	0.0027225701061802
scalar ws18_network.node[3].content_store 	kappa[3] 	1
scalar ws18_network.node[4].core_layer 	interests[4] 	0
scalar ws18_network.node[4].core_layer 	data[4] 	0
scalar ws18_network.node[4].content_store 	p_hit[4] 	-nan
scalar ws18_network.node[4].content_store 	hits[4] 	0
scalar ws18_network.node[4].content_store 	misses[4] 	0
scalar ws18_network.node[4].content_store 	decision_yes[4] 	0
scalar ws18_network.node[4].content_store 	decision_no[4] 	0
scalar ws18_network.node[4].content_store 	decision_ratio[4] 	0
scalar ws18_network.node[4].content_store 	correction_factor[4] 	0.0027225701061802
scalar ws18_network.node[4].content_store 	kappa[4] 	1
scalar ws18_network.node[5].core_layer 	interests[5] 	213298
scalar ws18_network.node[5].core_layer 	data[5] 	160129
scalar ws18_network.node[5].content_store 	p_hit[5] 	0.24572663597408
scalar ws18_network.node[5].content_store 	hits[5] 	52413
scalar ws18_network.node[5].content_store 	misses[5] 	160885
scalar ws18_network.node[5].content_store 	decision_yes[5] 	924
scalar ws18_network.node[5].content_store 	decision_no[5] 	159205
scalar ws18_network.node[5].content_store 	decision_ratio[5] 	0.0057703476572014
scalar ws18_network.node[5].content_store 	correction_factor[5] 	0.0027225701061802
scalar ws18_network.node[5].content_store 	kappa[5] 	1
scalar ws18_network.node[6].core_layer 	interests[6] 	0
scalar ws18_network.node[6].core_layer 	data[6] 	0
scalar ws18_network.node[6].content_store 	p_hit[6] 	-nan
scalar ws18_network.node[6].content_store 	hits[6] 	0
scalar ws18_network.node[6].content_store 	misses[6] 	0
scalar ws18_network.node[6].content_store 	decision_yes[6] 	0
scalar ws18_network.node[6].content_store 	decision_no[6] 	0
scalar ws18_network.node[6].content_store 	decision_ratio[6] 	0
scalar ws18_network.node[6].content_store 	correction_factor[6] 	0.0027225701061802
scalar ws18_network.node[6].content_store 	kappa[6] 	1
scalar ws18_network.node[7].core_layer 	interests[7] 	103397
scalar ws18_network.node[7].core_layer 	repo_load[7] 	82860
scalar ws18_network.node[7].core_layer 	data[7] 	0
scalar ws18_network.node[7].content_store 	p_hit[7] 	0.19862278402662
scalar ws18_network.node[7].content_store 	hits[7] 	20537
scalar ws18_network.node[7].content_store 	misses[7] 	82860
scalar ws18_network.node[7].content_store 	decision_yes[7] 	198
scalar ws18_network.node[7].content_store 	decision_no[7] 	82662
scalar ws18_network.node[7].content_store 	decision_ratio[7] 	0.0023895727733526
scalar ws18_network.node[7].content_store 	correction_factor[7] 	0.0027225701061802
scalar ws18_network.node[7].content_store 	kappa[7] 	1
scalar ws18_network.node[8].core_layer 	interests[8] 	210378
scalar ws18_network.node[8].core_layer 	repo_load[8] 	158389
scalar ws18_network.node[8].core_layer 	data[8] 	41742
scalar ws18_network.node[8].content_store 	p_hit[8] 	0.048660030991834
scalar ws18_network.node[8].content_store 	hits[8] 	10237
scalar ws18_network.node[8].content_store 	misses[8] 	200141
scalar ws18_network.node[8].content_store 	decision_yes[8] 	85
scalar ws18_network.node[8].content_store 	decision_no[8] 	200046
scalar ws18_network.node[8].content_store 	decision_ratio[8] 	0.00042472180721627
scalar ws18_network.node[8].content_store 	correction_factor[8] 	0.0027225701061802
scalar ws18_network.node[8].content_store 	kappa[8] 	1
scalar ws18_network.node[9].core_layer 	interests[9] 	0
scalar ws18_network.node[9].core_layer 	data[9] 	0
scalar ws18_network.node[9].content_store 	p_hit[9] 	-nan
scalar ws18_network.node[9].content_store 	hits[9] 	0
scalar ws18_network.node[9].content_store 	misses[9] 	0
scalar ws18_network.node[9].content_store 	decision_yes[9] 	0
scalar ws18_network.node[9].content_store 	decision_no[9] 	0
scalar ws18_network.node[9].content_store 	decision_ratio[9] 	0
scalar ws18_network.node[9].content_store 	correction_factor[9] 	0.0027225701061802
scalar ws18_network.node[9].content_store 	kappa[9] 	1
scalar ws18_network.node[10].core_layer 	interests[10] 	104748
scalar ws18_network.node[10].core_layer 	data[10] 	93448
scalar ws18_network.node[10].content_store 	p_hit[10] 	0.10788750143201
scalar ws18_network.node[10].content_store 	hits[10] 	11301
scalar ws18_network.node[10].content_store 	misses[10] 	93447
scalar ws18_network.node[10].content_store 	decision_yes[10] 	788
scalar ws18_network.node[10].content_store 	decision_no[10] 	92660
scalar ws18_network.node[10].content_store 	decision_ratio[10] 	0.008432497217704
scalar ws18_network.node[10].content_store 	correction_factor[10] 	0.0027225701061802
scalar ws18_network.node[10].content_store 	kappa[10] 	1
scalar ws18_network.node[11].core_layer 	interests[11] 	0
scalar ws18_network.node[11].core_layer 	data[11] 	0
scalar ws18_network.node[11].content_store 	p_hit[11] 	-nan
scalar ws18_network.node[11].content_store 	hits[11] 	0
scalar ws18_network.node[11].content_store 	misses[11] 	0
scalar ws18_network.node[11].content_store 	decision_yes[11] 	0
scalar ws18_network.node[11].content_store 	decision_no[11] 	0
scalar ws18_network.node[11].content_store 	decision_ratio[11] 	0
scalar ws18_network.node[11].content_store 	correction_factor[11] 	0.0027225701061802
scalar ws18_network.node[11].content_store 	kappa[11] 	1
scalar ws18_network.node[12].core_layer 	interests[12] 	0
scalar ws18_network.node[12].core_layer 	data[12] 	0
scalar ws18_network.node[12].content_store 	p_hit[12] 	-nan
scalar ws18_network.node[12].content_store 	hits[12] 	0
scalar ws18_network.node[12].content_store 	misses[12] 	0
scalar ws18_network.node[12].content_store 	decision_yes[12] 	0
scalar ws18_network.node[12].content_store 	decision_no[12] 	0
scalar ws18_network.node[12].content_store 	decision_ratio[12] 	0
scalar ws18_network.node[12].content_store 	correction_factor[12] 	0.0027225701061802
scalar ws18_network.node[12].content_store 	kappa[12] 	1
scalar ws18_network.node[13].core_layer 	interests[13] 	112589
scalar ws18_network.node[13].core_layer 	repo_load[13] 	85690
scalar ws18_network.node[13].core_layer 	data[13] 	0
scalar ws18_network.node[13].content_store 	p_hit[13] 	0.23891321532299
scalar ws18_network.node[13].content_store 	hits[13] 	26899
scalar ws18_network.node[13].content_store 	misses[13] 	85690
scalar ws18_network.node[13].content_store 	decision_yes[13] 	2345
scalar ws18_network.node[13].content_store 	decision_no[13] 	83345
scalar ws18_network.node[13].content_store 	decision_ratio[13] 	0.027366087058
scalar ws18_network.node[13].content_store 	correction_factor[13] 	0.0027225701061802
scalar ws18_network.node[13].content_store 	kappa[13] 	1
scalar ws18_network.node[14].core_layer 	interests[14] 	0
scalar ws18_network.node[14].core_layer 	data[14] 	0
scalar ws18_network.node[14].content_store 	p_hit[14] 	-nan
scalar ws18_network.node[14].content_store 	hits[14] 	0
scalar ws18_network.node[14].content_store 	misses[14] 	0
scalar ws18_network.node[14].content_store 	decision_yes[14] 	0
scalar ws18_network.node[14].content_store 	decision_no[14] 	0
scalar ws18_network.node[14].content_store 	decision_ratio[14] 	0
scalar ws18_network.node[14].content_store 	correction_factor[14] 	0.0027225701061802
scalar ws18_network.node[14].content_store 	kappa[14] 	1
scalar ws18_network.node[15].core_layer 	interests[15] 	0
scalar ws18_network.node[15].core_layer 	data[15] 	0
scalar ws18_network.node[15].content_store 	p_hit[15] 	-nan
scalar ws18_network.node[15].content_store 	hits[15] 	0
scalar ws18_network.node[15].content_store 	misses[15] 	0
scalar ws18_network.node[15].content_store 	decision_yes[15] 	0
scalar ws18_network.node[15].content_store 	decision_no[15] 	0
scalar ws18_network.node[15].content_store 	decision_ratio[15] 	0
scalar ws18_network.node[15].content_store 	correction_factor[15] 	0.0027225701061802
scalar ws18_network.node[15].content_store 	kappa[15] 	1
scalar ws18_network.node[16].core_layer 	interests[16] 	185006
scalar ws18_network.node[16].core_layer 	data[16] 	175396
scalar ws18_network.node[16].content_store 	p_hit[16] 	0.037717695642303
scalar ws18_network.node[16].content_store 	hits[16] 	6978
scalar ws18_network.node[16].content_store 	misses[16] 	178028
scalar ws18_network.node[16].content_store 	decision_yes[16] 	802
scalar ws18_network.node[16].content_store 	decision_no[16] 	174594
scalar ws18_network.node[16].content_store 	decision_ratio[16] 	0.0045725102054779
scalar ws18_network.node[16].content_store 	correction_factor[16] 	0.0027225701061802
scalar ws18_network.node[16].content_store 	kappa[16] 	1
scalar ws18_network.node[17].core_layer 	interests[17] 	59828
scalar ws18_network.node[17].core_layer 	data[17] 	59828
scalar ws18_network.node[17].content_store 	p_hit[17] 	0
scalar ws18_network.node[17].content_store 	hits[17] 	0
scalar ws18_network.node[17].content_store 	misses[17] 	59828
scalar ws18_network.node[17].content_store 	decision_yes[17] 	0
scalar ws18_network.node[17].content_store 	decision_no[17] 	59828
scalar ws18_network.node[17].content_store 	decision_ratio[17] 	0
scalar ws18_network.node[17].content_store 	correction_factor[17] 	0.0027225701061802
scalar ws18_network.node[17].content_store 	kappa[17] 	1
scalar ws18_network.node[18].core_layer 	interests[18] 	0
scalar ws18_network.node[18].core_layer 	data[18] 	0
scalar ws18_network.node[18].content_store 	p_hit[18] 	-nan
scalar ws18_network.node[18].content_store 	hits[18] 	0
scalar ws18_network.node[18].content_store 	misses[18] 	0
scalar ws18_network.node[18].content_store 	decision_yes[18] 	0
scalar ws18_network.node[18].content_store 	decision_no[18] 	0
scalar ws18_network.node[18].content_store 	decision_ratio[18] 	0
scalar ws18_network.node[18].content_store 	correction_factor[18] 	0.0027225701061802
scalar ws18_network.node[18].content_store 	kappa[18] 	1
scalar ws18_network.node[19].core_layer 	interests[19] 	0
scalar ws18_network.node[19].core_layer 	data[19] 	0
scalar ws18_network.node[19].content_store 	p_hit[19] 	-nan
scalar ws18_network.node[19].content_store 	hits[19] 	0
scalar ws18_network.node[19].content_store 	misses[19] 	0
scalar ws18_network.node[19].content_store 	decision_yes[19] 	0
scalar ws18_network.node[19].content_store 	decision_no[19] 	0
scalar ws18_network.node[19].content_store 	decision_ratio[19] 	0
scalar ws18_network.node[19].content_store 	correction_factor[19] 	0.0027225701061802
scalar ws18_network.node[19].content_store 	kappa[19] 	1
scalar ws18_network.node[20].core_layer 	interests[20] 	0
scalar ws18_network.node[20].core_layer 	data[20] 	0
scalar ws18_network.node[20].content_store 	p_hit[20] 	-nan
scalar ws18_network.node[20].content_store 	hits[20] 	0
scalar ws18_network.node[20].content_store 	misses[20] 	0
scalar ws18_network.node[20].content_store 	decision_yes[20] 	0
scalar ws18_network.node[20].content_store 	decision_no[20] 	0
scalar ws18_network.node[20].content_store 	decision_ratio[20] 	0
scalar ws18_network.node[20].content_store 	correction_factor[20] 	0.0027225701061802
scalar ws18_network.node[20].content_store 	kappa[20] 	1
scalar ws18_network.node[21].core_layer 	interests[21] 	0
scalar ws18_network.node[21].core_layer 	data[21] 	0
scalar ws18_network.node[21].content_store 	p_hit[21] 	-nan
scalar ws18_network.node[21].content_store 	hits[21] 	0
scalar ws18_network.node[21].content_store 	misses[21] 	0
scalar ws18_network.node[21].content_store 	decision_yes[21] 	0
scalar ws18_network.node[21].content_store 	decision_no[21] 	0
scalar ws18_network.node[21].content_store 	decision_ratio[21] 	0
scalar ws18_network.node[21].content_store 	correction_factor[21] 	0.0027225701061802
scalar ws18_network.node[21].content_store 	kappa[21] 	1
scalar ws18_network.client[1] 	hdistance[1] 	1.9012841900198
scalar ws18_network.client[1] 	downloads[1] 	178634
scalar ws18_network.client[1] 	avg_time[1] 	0.006654836406
scalar ws18_network.client[1] 	interests_sent[1] 	180024
scalar ws18_network.client[5] 	hdistance[5] 	2.7674256220045
scalar ws18_network.client[5] 	downloads[5] 	179018
scalar ws18_network.client[5] 	avg_time[5] 	0.011176264476
scalar ws18_network.client[5] 	interests_sent[5] 	179774
scalar ws18_network.client[16] 	hdistance[16] 	2.6884380974809
scalar ws18_network.client[16] 	downloads[16] 	178353
scalar ws18_network.client[16] 	avg_time[16] 	0.010693548246
scalar ws18_network.client[16] 	interests_sent[16] 	180985
