version 2
run General-3-20141031-11:55:14-7937
attr D costaware0.01
attr F nrr
attr R lru
attr a 1
attr configname General
attr csize 1e3
attr ctlg 1e5
attr datetime 20141031-11:55:14
attr experiment General
attr inifile omnetpp.ini
attr iterationvars "$rep=17, $lambda=100, $a=1, $ctlg=1e5, $F=nrr, $ttl=10, $D=costaware0.01, $R=lru, $csize=1e3, $window=60, $variance=0.05, $mytime=1800, $kappa=1, $priceratiovalue=10, $pricebits=0"
attr iterationvars2 "$rep=17, $lambda=100, $a=1, $ctlg=1e5, $F=nrr, $ttl=10, $D=costaware0.01, $R=lru, $csize=1e3, $window=60, $variance=0.05, $mytime=1800, $kappa=1, $priceratiovalue=10, $pricebits=0, $repetition=0"
attr kappa 1
attr lambda 100
attr measurement "$rep=17, $lambda=100, $a=1, $ctlg=1e5, $F=nrr, $ttl=10, $D=costaware0.01, $R=lru, $csize=1e3, $window=60, $variance=0.05, $mytime=1800, $kappa=1, $priceratiovalue=10, $pricebits=0"
attr mytime 1800
attr network networks.ws${rep}_network
attr pricebits 0
attr priceratiovalue 10
attr processid 7937
attr rep 17
attr repetition 0
attr replication #0
attr resultdir results
attr runnumber 3
attr seedset 17
attr ttl 10
attr variance 0.05
attr window 60

scalar . 	a 	1
scalar . 	csize 	1e3
scalar . 	ctlg 	1e5
scalar . 	kappa 	1
scalar . 	lambda 	100
scalar . 	mytime 	1800
scalar . 	pricebits 	0
scalar . 	priceratiovalue 	10
scalar . 	rep 	17
scalar . 	ttl 	10
scalar . 	variance 	0.05
scalar . 	window 	60
scalar ws17_network.content_distribution 	repo-0 	21
scalar ws17_network.content_distribution 	repo-1 	11
scalar ws17_network.content_distribution 	repo-2 	13
scalar ws17_network.content_distribution 	client-0 	0
scalar ws17_network.content_distribution 	client-1 	5
scalar ws17_network.content_distribution 	client-2 	10
scalar ws17_network.content_distribution 	repo-0_card 	33434
scalar ws17_network.content_distribution 	repo-0_price 	10
scalar ws17_network.content_distribution 	repo-1_card 	33236
scalar ws17_network.content_distribution 	repo-1_price 	0
scalar ws17_network.content_distribution 	repo-2_card 	33330
scalar ws17_network.content_distribution 	repo-2_price 	1
scalar ws17_network.statistics 	repo_popularity[0] 	0.28775972584778
scalar ws17_network.statistics 	repo_popularity[1] 	0.38489717054386
scalar ws17_network.statistics 	repo_popularity[2] 	0.32734310360837
scalar ws17_network.statistics 	stabilization_time 	36060
scalar ws17_network.statistics 	p_hit 	0.098570514672617
scalar ws17_network.statistics 	interests 	80076.5
scalar ws17_network.statistics 	data 	55540.045454545
scalar ws17_network.statistics 	hdistance 	2.9664790103745
scalar ws17_network.statistics 	avg_time 	0.01180370096
scalar ws17_network.statistics 	downloads 	533358
scalar ws17_network.statistics 	total_cost 	844714
scalar ws17_network.statistics 	total_replicas 	100000
scalar ws17_network.statistics 	inner_hit 	0.32561056551135
scalar ws17_network.statistics 	interests_sent 	539805
scalar ws17_network.node[0].core_layer 	interests[0] 	183009
scalar ws17_network.node[0].core_layer 	data[0] 	175009
scalar ws17_network.node[0].core_layer 	repo_int[0] 	359691
scalar ws17_network.node[0].content_store 	p_hit[0] 	0.029167964417051
scalar ws17_network.node[0].content_store 	hits[0] 	5338
scalar ws17_network.node[0].content_store 	misses[0] 	177671
scalar ws17_network.node[0].content_store 	decision_yes[0] 	791
scalar ws17_network.node[0].content_store 	decision_no[0] 	174218
scalar ws17_network.node[0].content_store 	decision_ratio[0] 	0.0045197675548115
scalar ws17_network.node[0].content_store 	correction_factor[0] 	0.0027225701061802
scalar ws17_network.node[0].content_store 	kappa[0] 	1
scalar ws17_network.node[1].core_layer 	interests[1] 	10608
scalar ws17_network.node[1].core_layer 	data[1] 	10608
scalar ws17_network.node[1].content_store 	p_hit[1] 	0
scalar ws17_network.node[1].content_store 	hits[1] 	0
scalar ws17_network.node[1].content_store 	misses[1] 	10608
scalar ws17_network.node[1].content_store 	decision_yes[1] 	0
scalar ws17_network.node[1].content_store 	decision_no[1] 	10608
scalar ws17_network.node[1].content_store 	decision_ratio[1] 	0
scalar ws17_network.node[1].content_store 	correction_factor[1] 	0.0027225701061802
scalar ws17_network.node[1].content_store 	kappa[1] 	1
scalar ws17_network.node[2].core_layer 	interests[2] 	63200
scalar ws17_network.node[2].core_layer 	data[2] 	54665
scalar ws17_network.node[2].content_store 	p_hit[2] 	0.13504746835443
scalar ws17_network.node[2].content_store 	hits[2] 	8535
scalar ws17_network.node[2].content_store 	misses[2] 	54665
scalar ws17_network.node[2].content_store 	decision_yes[2] 	80
scalar ws17_network.node[2].content_store 	decision_no[2] 	54585
scalar ws17_network.node[2].content_store 	decision_ratio[2] 	0.0014634592518065
scalar ws17_network.node[2].content_store 	correction_factor[2] 	0.0027225701061802
scalar ws17_network.node[2].content_store 	kappa[2] 	1
scalar ws17_network.node[3].core_layer 	interests[3] 	0
scalar ws17_network.node[3].core_layer 	data[3] 	0
scalar ws17_network.node[3].content_store 	p_hit[3] 	-nan
scalar ws17_network.node[3].content_store 	hits[3] 	0
scalar ws17_network.node[3].content_store 	misses[3] 	0
scalar ws17_network.node[3].content_store 	decision_yes[3] 	0
scalar ws17_network.node[3].content_store 	decision_no[3] 	0
scalar ws17_network.node[3].content_store 	decision_ratio[3] 	0
scalar ws17_network.node[3].content_store 	correction_factor[3] 	0.0027225701061802
scalar ws17_network.node[3].content_store 	kappa[3] 	1
scalar ws17_network.node[4].core_layer 	interests[4] 	6933
scalar ws17_network.node[4].core_layer 	data[4] 	6931
scalar ws17_network.node[4].content_store 	p_hit[4] 	0
scalar ws17_network.node[4].content_store 	hits[4] 	0
scalar ws17_network.node[4].content_store 	misses[4] 	6933
scalar ws17_network.node[4].content_store 	decision_yes[4] 	0
scalar ws17_network.node[4].content_store 	decision_no[4] 	6931
scalar ws17_network.node[4].content_store 	decision_ratio[4] 	0
scalar ws17_network.node[4].content_store 	correction_factor[4] 	0.0027225701061802
scalar ws17_network.node[4].content_store 	kappa[4] 	1
scalar ws17_network.node[5].core_layer 	interests[5] 	233924
scalar ws17_network.node[5].core_layer 	data[5] 	198188
scalar ws17_network.node[5].content_store 	p_hit[5] 	0.14533780202117
scalar ws17_network.node[5].content_store 	hits[5] 	33998
scalar ws17_network.node[5].content_store 	misses[5] 	199926
scalar ws17_network.node[5].content_store 	decision_yes[5] 	829
scalar ws17_network.node[5].content_store 	decision_no[5] 	197359
scalar ws17_network.node[5].content_store 	decision_ratio[5] 	0.0041828970472481
scalar ws17_network.node[5].content_store 	correction_factor[5] 	0.0027225701061802
scalar ws17_network.node[5].content_store 	kappa[5] 	1
scalar ws17_network.node[6].core_layer 	interests[6] 	110915
scalar ws17_network.node[6].core_layer 	data[6] 	109829
scalar ws17_network.node[6].content_store 	p_hit[6] 	0.0098002975251319
scalar ws17_network.node[6].content_store 	hits[6] 	1087
scalar ws17_network.node[6].content_store 	misses[6] 	109828
scalar ws17_network.node[6].content_store 	decision_yes[6] 	682
scalar ws17_network.node[6].content_store 	decision_no[6] 	109147
scalar ws17_network.node[6].content_store 	decision_ratio[6] 	0.0062096531881379
scalar ws17_network.node[6].content_store 	correction_factor[6] 	0.0027225701061802
scalar ws17_network.node[6].content_store 	kappa[6] 	1
scalar ws17_network.node[7].core_layer 	interests[7] 	74660
scalar ws17_network.node[7].core_layer 	data[7] 	74660
scalar ws17_network.node[7].content_store 	p_hit[7] 	0
scalar ws17_network.node[7].content_store 	hits[7] 	0
scalar ws17_network.node[7].content_store 	misses[7] 	74660
scalar ws17_network.node[7].content_store 	decision_yes[7] 	0
scalar ws17_network.node[7].content_store 	decision_no[7] 	74660
scalar ws17_network.node[7].content_store 	decision_ratio[7] 	0
scalar ws17_network.node[7].content_store 	correction_factor[7] 	0.0027225701061802
scalar ws17_network.node[7].content_store 	kappa[7] 	1
scalar ws17_network.node[8].core_layer 	interests[8] 	145460
scalar ws17_network.node[8].core_layer 	data[8] 	130143
scalar ws17_network.node[8].content_store 	p_hit[8] 	0.10530042623402
scalar ws17_network.node[8].content_store 	hits[8] 	15317
scalar ws17_network.node[8].content_store 	misses[8] 	130143
scalar ws17_network.node[8].content_store 	decision_yes[8] 	77
scalar ws17_network.node[8].content_store 	decision_no[8] 	130066
scalar ws17_network.node[8].content_store 	decision_ratio[8] 	0.00059165686975097
scalar ws17_network.node[8].content_store 	correction_factor[8] 	0.0027225701061802
scalar ws17_network.node[8].content_store 	kappa[8] 	1
scalar ws17_network.node[9].core_layer 	interests[9] 	39127
scalar ws17_network.node[9].core_layer 	data[9] 	34815
scalar ws17_network.node[9].content_store 	p_hit[9] 	0.11020522912567
scalar ws17_network.node[9].content_store 	hits[9] 	4312
scalar ws17_network.node[9].content_store 	misses[9] 	34815
scalar ws17_network.node[9].content_store 	decision_yes[9] 	689
scalar ws17_network.node[9].content_store 	decision_no[9] 	34126
scalar ws17_network.node[9].content_store 	decision_ratio[9] 	0.019790320264254
scalar ws17_network.node[9].content_store 	correction_factor[9] 	0.0027225701061802
scalar ws17_network.node[9].content_store 	kappa[9] 	1
scalar ws17_network.node[10].core_layer 	interests[10] 	184485
scalar ws17_network.node[10].core_layer 	data[10] 	173706
scalar ws17_network.node[10].content_store 	p_hit[10] 	0.047282976935794
scalar ws17_network.node[10].content_store 	hits[10] 	8723
scalar ws17_network.node[10].content_store 	misses[10] 	175762
scalar ws17_network.node[10].content_store 	decision_yes[10] 	741
scalar ws17_network.node[10].content_store 	decision_no[10] 	172965
scalar ws17_network.node[10].content_store 	decision_ratio[10] 	0.0042658284687921
scalar ws17_network.node[10].content_store 	correction_factor[10] 	0.0027225701061802
scalar ws17_network.node[10].content_store 	kappa[10] 	1
scalar ws17_network.node[11].core_layer 	interests[11] 	291748
scalar ws17_network.node[11].core_layer 	repo_load[11] 	203351
scalar ws17_network.node[11].core_layer 	data[11] 	67554
scalar ws17_network.node[11].content_store 	p_hit[11] 	0.071441792231652
scalar ws17_network.node[11].content_store 	hits[11] 	20843
scalar ws17_network.node[11].content_store 	misses[11] 	270905
scalar ws17_network.node[11].content_store 	decision_yes[11] 	740
scalar ws17_network.node[11].content_store 	decision_no[11] 	270165
scalar ws17_network.node[11].content_store 	decision_ratio[11] 	0.0027315848729259
scalar ws17_network.node[11].content_store 	correction_factor[11] 	0.0027225701061802
scalar ws17_network.node[11].content_store 	kappa[11] 	1
scalar ws17_network.node[12].core_layer 	interests[12] 	17657
scalar ws17_network.node[12].core_layer 	data[12] 	17657
scalar ws17_network.node[12].content_store 	p_hit[12] 	0
scalar ws17_network.node[12].content_store 	hits[12] 	0
scalar ws17_network.node[12].content_store 	misses[12] 	17657
scalar ws17_network.node[12].content_store 	decision_yes[12] 	0
scalar ws17_network.node[12].content_store 	decision_no[12] 	17657
scalar ws17_network.node[12].content_store 	decision_ratio[12] 	0
scalar ws17_network.node[12].content_store 	correction_factor[12] 	0.0027225701061802
scalar ws17_network.node[12].content_store 	kappa[12] 	1
scalar ws17_network.node[13].core_layer 	interests[13] 	98328
scalar ws17_network.node[13].core_layer 	repo_load[13] 	79854
scalar ws17_network.node[13].core_layer 	data[13] 	0
scalar ws17_network.node[13].content_store 	p_hit[13] 	0.18788137661704
scalar ws17_network.node[13].content_store 	hits[13] 	18474
scalar ws17_network.node[13].content_store 	misses[13] 	79854
scalar ws17_network.node[13].content_store 	decision_yes[13] 	244
scalar ws17_network.node[13].content_store 	decision_no[13] 	79610
scalar ws17_network.node[13].content_store 	decision_ratio[13] 	0.0030555764269792
scalar ws17_network.node[13].content_store 	correction_factor[13] 	0.0027225701061802
scalar ws17_network.node[13].content_store 	kappa[13] 	1
scalar ws17_network.node[14].core_layer 	interests[14] 	117753
scalar ws17_network.node[14].core_layer 	data[14] 	111484
scalar ws17_network.node[14].content_store 	p_hit[14] 	0.053230066325274
scalar ws17_network.node[14].content_store 	hits[14] 	6268
scalar ws17_network.node[14].content_store 	misses[14] 	111485
scalar ws17_network.node[14].content_store 	decision_yes[14] 	699
scalar ws17_network.node[14].content_store 	decision_no[14] 	110785
scalar ws17_network.node[14].content_store 	decision_ratio[14] 	0.0062699580208819
scalar ws17_network.node[14].content_store 	correction_factor[14] 	0.0027225701061802
scalar ws17_network.node[14].content_store 	kappa[14] 	1
scalar ws17_network.node[15].core_layer 	interests[15] 	2849
scalar ws17_network.node[15].core_layer 	data[15] 	2846
scalar ws17_network.node[15].content_store 	p_hit[15] 	0
scalar ws17_network.node[15].content_store 	hits[15] 	0
scalar ws17_network.node[15].content_store 	misses[15] 	2849
scalar ws17_network.node[15].content_store 	decision_yes[15] 	0
scalar ws17_network.node[15].content_store 	decision_no[15] 	2846
scalar ws17_network.node[15].content_store 	decision_ratio[15] 	0
scalar ws17_network.node[15].content_store 	correction_factor[15] 	0.0027225701061802
scalar ws17_network.node[15].content_store 	kappa[15] 	1
scalar ws17_network.node[16].core_layer 	interests[16] 	0
scalar ws17_network.node[16].core_layer 	data[16] 	0
scalar ws17_network.node[16].content_store 	p_hit[16] 	-nan
scalar ws17_network.node[16].content_store 	hits[16] 	0
scalar ws17_network.node[16].content_store 	misses[16] 	0
scalar ws17_network.node[16].content_store 	decision_yes[16] 	0
scalar ws17_network.node[16].content_store 	decision_no[16] 	0
scalar ws17_network.node[16].content_store 	decision_ratio[16] 	0
scalar ws17_network.node[16].content_store 	correction_factor[16] 	0.0027225701061802
scalar ws17_network.node[16].content_store 	kappa[16] 	1
scalar ws17_network.node[17].core_layer 	interests[17] 	0
scalar ws17_network.node[17].core_layer 	data[17] 	0
scalar ws17_network.node[17].content_store 	p_hit[17] 	-nan
scalar ws17_network.node[17].content_store 	hits[17] 	0
scalar ws17_network.node[17].content_store 	misses[17] 	0
scalar ws17_network.node[17].content_store 	decision_yes[17] 	0
scalar ws17_network.node[17].content_store 	decision_no[17] 	0
scalar ws17_network.node[17].content_store 	decision_ratio[17] 	0
scalar ws17_network.node[17].content_store 	correction_factor[17] 	0.0027225701061802
scalar ws17_network.node[17].content_store 	kappa[17] 	1
scalar ws17_network.node[18].core_layer 	interests[18] 	0
scalar ws17_network.node[18].core_layer 	data[18] 	0
scalar ws17_network.node[18].content_store 	p_hit[18] 	-nan
scalar ws17_network.node[18].content_store 	hits[18] 	0
scalar ws17_network.node[18].content_store 	misses[18] 	0
scalar ws17_network.node[18].content_store 	decision_yes[18] 	0
scalar ws17_network.node[18].content_store 	decision_no[18] 	0
scalar ws17_network.node[18].content_store 	decision_ratio[18] 	0
scalar ws17_network.node[18].content_store 	correction_factor[18] 	0.0027225701061802
scalar ws17_network.node[18].content_store 	kappa[18] 	1
scalar ws17_network.node[19].core_layer 	interests[19] 	7245
scalar ws17_network.node[19].core_layer 	data[19] 	7245
scalar ws17_network.node[19].content_store 	p_hit[19] 	0
scalar ws17_network.node[19].content_store 	hits[19] 	0
scalar ws17_network.node[19].content_store 	misses[19] 	7245
scalar ws17_network.node[19].content_store 	decision_yes[19] 	0
scalar ws17_network.node[19].content_store 	decision_no[19] 	7245
scalar ws17_network.node[19].content_store 	decision_ratio[19] 	0
scalar ws17_network.node[19].content_store 	correction_factor[19] 	0.0027225701061802
scalar ws17_network.node[19].content_store 	kappa[19] 	1
scalar ws17_network.node[20].core_layer 	interests[20] 	68672
scalar ws17_network.node[20].core_layer 	data[20] 	46541
scalar ws17_network.node[20].content_store 	p_hit[20] 	0.32227108574091
scalar ws17_network.node[20].content_store 	hits[20] 	22131
scalar ws17_network.node[20].content_store 	misses[20] 	46541
scalar ws17_network.node[20].content_store 	decision_yes[20] 	57
scalar ws17_network.node[20].content_store 	decision_no[20] 	46484
scalar ws17_network.node[20].content_store 	decision_ratio[20] 	0.0012247265851615
scalar ws17_network.node[20].content_store 	correction_factor[20] 	0.0027225701061802
scalar ws17_network.node[20].content_store 	kappa[20] 	1
scalar ws17_network.node[21].core_layer 	interests[21] 	105110
scalar ws17_network.node[21].core_layer 	repo_load[21] 	76486
scalar ws17_network.node[21].core_layer 	data[21] 	0
scalar ws17_network.node[21].content_store 	p_hit[21] 	0.27232423175721
scalar ws17_network.node[21].content_store 	hits[21] 	28624
scalar ws17_network.node[21].content_store 	misses[21] 	76486
scalar ws17_network.node[21].content_store 	decision_yes[21] 	2093
scalar ws17_network.node[21].content_store 	decision_no[21] 	74393
scalar ws17_network.node[21].content_store 	decision_ratio[21] 	0.027364485003792
scalar ws17_network.node[21].content_store 	correction_factor[21] 	0.0027225701061802
scalar ws17_network.node[21].content_store 	kappa[21] 	1
scalar ws17_network.client[0] 	hdistance[0] 	3.4618617771509
scalar ws17_network.client[0] 	downloads[0] 	177250
scalar ws17_network.client[0] 	avg_time[0] 	0.014329476617
scalar ws17_network.client[0] 	interests_sent[0] 	179912
scalar ws17_network.client[5] 	hdistance[5] 	2.5568862945697
scalar ws17_network.client[5] 	downloads[5] 	178681
scalar ws17_network.client[5] 	avg_time[5] 	0.009716623278
scalar ws17_network.client[5] 	interests_sent[5] 	180410
scalar ws17_network.client[10] 	hdistance[10] 	2.880688959403
scalar ws17_network.client[10] 	downloads[10] 	177427
scalar ws17_network.client[10] 	avg_time[10] 	0.011365002987
scalar ws17_network.client[10] 	interests_sent[10] 	179483
