version 2
run General-3-20141031-10:57:30-24650
attr D costaware0.01
attr F nrr
attr R lru
attr a 1
attr configname General
attr csize 1e3
attr ctlg 1e5
attr datetime 20141031-10:57:30
attr experiment General
attr inifile omnetpp.ini
attr iterationvars "$rep=13, $lambda=100, $a=1, $ctlg=1e5, $F=nrr, $ttl=10, $D=costaware0.01, $R=lru, $csize=1e3, $window=60, $variance=0.05, $mytime=1800, $kappa=1, $priceratiovalue=10, $pricebits=0"
attr iterationvars2 "$rep=13, $lambda=100, $a=1, $ctlg=1e5, $F=nrr, $ttl=10, $D=costaware0.01, $R=lru, $csize=1e3, $window=60, $variance=0.05, $mytime=1800, $kappa=1, $priceratiovalue=10, $pricebits=0, $repetition=0"
attr kappa 1
attr lambda 100
attr measurement "$rep=13, $lambda=100, $a=1, $ctlg=1e5, $F=nrr, $ttl=10, $D=costaware0.01, $R=lru, $csize=1e3, $window=60, $variance=0.05, $mytime=1800, $kappa=1, $priceratiovalue=10, $pricebits=0"
attr mytime 1800
attr network networks.ws${rep}_network
attr pricebits 0
attr priceratiovalue 10
attr processid 24650
attr rep 13
attr repetition 0
attr replication #0
attr resultdir results
attr runnumber 3
attr seedset 13
attr ttl 10
attr variance 0.05
attr window 60

scalar . 	a 	1
scalar . 	csize 	1e3
scalar . 	ctlg 	1e5
scalar . 	kappa 	1
scalar . 	lambda 	100
scalar . 	mytime 	1800
scalar . 	pricebits 	0
scalar . 	priceratiovalue 	10
scalar . 	rep 	13
scalar . 	ttl 	10
scalar . 	variance 	0.05
scalar . 	window 	60
scalar ws13_network.content_distribution 	repo-0 	6
scalar ws13_network.content_distribution 	repo-1 	7
scalar ws13_network.content_distribution 	repo-2 	5
scalar ws13_network.content_distribution 	client-0 	18
scalar ws13_network.content_distribution 	client-1 	1
scalar ws13_network.content_distribution 	client-2 	12
scalar ws13_network.content_distribution 	repo-0_card 	33148
scalar ws13_network.content_distribution 	repo-0_price 	0
scalar ws13_network.content_distribution 	repo-1_card 	33483
scalar ws13_network.content_distribution 	repo-1_price 	1
scalar ws13_network.content_distribution 	repo-2_card 	33369
scalar ws13_network.content_distribution 	repo-2_price 	10
scalar ws13_network.statistics 	repo_popularity[0] 	0.3357648681557
scalar ws13_network.statistics 	repo_popularity[1] 	0.38046139947857
scalar ws13_network.statistics 	repo_popularity[2] 	0.28377373236574
scalar ws13_network.statistics 	p_hit 	0.098031427597577
scalar ws13_network.statistics 	interests 	65345
scalar ws13_network.statistics 	data 	46099.409090909
scalar ws13_network.statistics 	hdistance 	3.0906805294448
scalar ws13_network.statistics 	avg_time 	0.012487455646
scalar ws13_network.statistics 	downloads 	418439
scalar ws13_network.statistics 	total_cost 	697330
scalar ws13_network.statistics 	total_replicas 	100000
scalar ws13_network.statistics 	inner_hit 	0.33900520744959
scalar ws13_network.statistics 	interests_sent 	423399
scalar ws13_network.node[0].core_layer 	interests[0] 	31090
scalar ws13_network.node[0].core_layer 	data[0] 	23453
scalar ws13_network.node[0].core_layer 	repo_int[0] 	276586
scalar ws13_network.node[0].content_store 	p_hit[0] 	0.2456416854294
scalar ws13_network.node[0].content_store 	hits[0] 	7637
scalar ws13_network.node[0].content_store 	misses[0] 	23453
scalar ws13_network.node[0].content_store 	decision_yes[0] 	593
scalar ws13_network.node[0].content_store 	decision_no[0] 	22860
scalar ws13_network.node[0].content_store 	decision_ratio[0] 	0.025284611776745
scalar ws13_network.node[0].content_store 	correction_factor[0] 	0.0027225701061802
scalar ws13_network.node[0].content_store 	kappa[0] 	1
scalar ws13_network.node[1].core_layer 	interests[1] 	151585
scalar ws13_network.node[1].core_layer 	data[1] 	141334
scalar ws13_network.node[1].content_store 	p_hit[1] 	0.052861430880364
scalar ws13_network.node[1].content_store 	hits[1] 	8013
scalar ws13_network.node[1].content_store 	misses[1] 	143572
scalar ws13_network.node[1].content_store 	decision_yes[1] 	596
scalar ws13_network.node[1].content_store 	decision_no[1] 	140738
scalar ws13_network.node[1].content_store 	decision_ratio[1] 	0.0042169612407489
scalar ws13_network.node[1].content_store 	correction_factor[1] 	0.0027225701061802
scalar ws13_network.node[1].content_store 	kappa[1] 	1
scalar ws13_network.node[2].core_layer 	interests[2] 	61899
scalar ws13_network.node[2].core_layer 	data[2] 	56599
scalar ws13_network.node[2].content_store 	p_hit[2] 	0.085591043474046
scalar ws13_network.node[2].content_store 	hits[2] 	5298
scalar ws13_network.node[2].content_store 	misses[2] 	56601
scalar ws13_network.node[2].content_store 	decision_yes[2] 	76
scalar ws13_network.node[2].content_store 	decision_no[2] 	56523
scalar ws13_network.node[2].content_store 	decision_ratio[2] 	0.0013427799077722
scalar ws13_network.node[2].content_store 	correction_factor[2] 	0.0027225701061802
scalar ws13_network.node[2].content_store 	kappa[2] 	1
scalar ws13_network.node[3].core_layer 	interests[3] 	173970
scalar ws13_network.node[3].core_layer 	data[3] 	164257
scalar ws13_network.node[3].content_store 	p_hit[3] 	0.050669655687762
scalar ws13_network.node[3].content_store 	hits[3] 	8815
scalar ws13_network.node[3].content_store 	misses[3] 	165155
scalar ws13_network.node[3].content_store 	decision_yes[3] 	1104
scalar ws13_network.node[3].content_store 	decision_no[3] 	163153
scalar ws13_network.node[3].content_store 	decision_ratio[3] 	0.0067211747444553
scalar ws13_network.node[3].content_store 	correction_factor[3] 	0.0027225701061802
scalar ws13_network.node[3].content_store 	kappa[3] 	1
scalar ws13_network.node[4].core_layer 	interests[4] 	163267
scalar ws13_network.node[4].core_layer 	data[4] 	149381
scalar ws13_network.node[4].content_store 	p_hit[4] 	0.085044742660795
scalar ws13_network.node[4].content_store 	hits[4] 	13885
scalar ws13_network.node[4].content_store 	misses[4] 	149382
scalar ws13_network.node[4].content_store 	decision_yes[4] 	1149
scalar ws13_network.node[4].content_store 	decision_no[4] 	148232
scalar ws13_network.node[4].content_store 	decision_ratio[4] 	0.0076917412522342
scalar ws13_network.node[4].content_store 	correction_factor[4] 	0.0027225701061802
scalar ws13_network.node[4].content_store 	kappa[4] 	1
scalar ws13_network.node[5].core_layer 	interests[5] 	70455
scalar ws13_network.node[5].core_layer 	repo_load[5] 	62321
scalar ws13_network.node[5].core_layer 	data[5] 	0
scalar ws13_network.node[5].content_store 	p_hit[5] 	0.11544957774466
scalar ws13_network.node[5].content_store 	hits[5] 	8134
scalar ws13_network.node[5].content_store 	misses[5] 	62321
scalar ws13_network.node[5].content_store 	decision_yes[5] 	1733
scalar ws13_network.node[5].content_store 	decision_no[5] 	60588
scalar ws13_network.node[5].content_store 	decision_ratio[5] 	0.027807641084065
scalar ws13_network.node[5].content_store 	correction_factor[5] 	0.0027225701061802
scalar ws13_network.node[5].content_store 	kappa[5] 	1
scalar ws13_network.node[6].core_layer 	interests[6] 	144778
scalar ws13_network.node[6].core_layer 	repo_load[6] 	140145
scalar ws13_network.node[6].core_layer 	data[6] 	4633
scalar ws13_network.node[6].content_store 	p_hit[6] 	0
scalar ws13_network.node[6].content_store 	hits[6] 	0
scalar ws13_network.node[6].content_store 	misses[6] 	144778
scalar ws13_network.node[6].content_store 	decision_yes[6] 	0
scalar ws13_network.node[6].content_store 	decision_no[6] 	144778
scalar ws13_network.node[6].content_store 	decision_ratio[6] 	0
scalar ws13_network.node[6].content_store 	correction_factor[6] 	0.0027225701061802
scalar ws13_network.node[6].content_store 	kappa[6] 	1
scalar ws13_network.node[7].core_layer 	interests[7] 	101406
scalar ws13_network.node[7].core_layer 	repo_load[7] 	74120
scalar ws13_network.node[7].core_layer 	data[7] 	0
scalar ws13_network.node[7].content_store 	p_hit[7] 	0.26907678046664
scalar ws13_network.node[7].content_store 	hits[7] 	27286
scalar ws13_network.node[7].content_store 	misses[7] 	74120
scalar ws13_network.node[7].content_store 	decision_yes[7] 	200
scalar ws13_network.node[7].content_store 	decision_no[7] 	73920
scalar ws13_network.node[7].content_store 	decision_ratio[7] 	0.0026983270372369
scalar ws13_network.node[7].content_store 	correction_factor[7] 	0.0027225701061802
scalar ws13_network.node[7].content_store 	kappa[7] 	1
scalar ws13_network.node[8].core_layer 	interests[8] 	36846
scalar ws13_network.node[8].core_layer 	data[8] 	33752
scalar ws13_network.node[8].content_store 	p_hit[8] 	0.083971123052706
scalar ws13_network.node[8].content_store 	hits[8] 	3094
scalar ws13_network.node[8].content_store 	misses[8] 	33752
scalar ws13_network.node[8].content_store 	decision_yes[8] 	71
scalar ws13_network.node[8].content_store 	decision_no[8] 	33681
scalar ws13_network.node[8].content_store 	decision_ratio[8] 	0.0021035790471676
scalar ws13_network.node[8].content_store 	correction_factor[8] 	0.0027225701061802
scalar ws13_network.node[8].content_store 	kappa[8] 	1
scalar ws13_network.node[9].core_layer 	interests[9] 	56330
scalar ws13_network.node[9].core_layer 	data[9] 	50486
scalar ws13_network.node[9].content_store 	p_hit[9] 	0.10372803124445
scalar ws13_network.node[9].content_store 	hits[9] 	5843
scalar ws13_network.node[9].content_store 	misses[9] 	50487
scalar ws13_network.node[9].content_store 	decision_yes[9] 	64
scalar ws13_network.node[9].content_store 	decision_no[9] 	50422
scalar ws13_network.node[9].content_store 	decision_ratio[9] 	0.001267678168205
scalar ws13_network.node[9].content_store 	correction_factor[9] 	0.0027225701061802
scalar ws13_network.node[9].content_store 	kappa[9] 	1
scalar ws13_network.node[10].core_layer 	interests[10] 	0
scalar ws13_network.node[10].core_layer 	data[10] 	0
scalar ws13_network.node[10].content_store 	p_hit[10] 	-nan
scalar ws13_network.node[10].content_store 	hits[10] 	0
scalar ws13_network.node[10].content_store 	misses[10] 	0
scalar ws13_network.node[10].content_store 	decision_yes[10] 	0
scalar ws13_network.node[10].content_store 	decision_no[10] 	0
scalar ws13_network.node[10].content_store 	decision_ratio[10] 	0
scalar ws13_network.node[10].content_store 	correction_factor[10] 	0.0027225701061802
scalar ws13_network.node[10].content_store 	kappa[10] 	1
scalar ws13_network.node[11].core_layer 	interests[11] 	28554
scalar ws13_network.node[11].core_layer 	data[11] 	25948
scalar ws13_network.node[11].content_store 	p_hit[11] 	0.091265672059957
scalar ws13_network.node[11].content_store 	hits[11] 	2606
scalar ws13_network.node[11].content_store 	misses[11] 	25948
scalar ws13_network.node[11].content_store 	decision_yes[11] 	575
scalar ws13_network.node[11].content_store 	decision_no[11] 	25373
scalar ws13_network.node[11].content_store 	decision_ratio[11] 	0.022159704023431
scalar ws13_network.node[11].content_store 	correction_factor[11] 	0.0027225701061802
scalar ws13_network.node[11].content_store 	kappa[11] 	1
scalar ws13_network.node[12].core_layer 	interests[12] 	145744
scalar ws13_network.node[12].core_layer 	data[12] 	137720
scalar ws13_network.node[12].content_store 	p_hit[12] 	0.045367219233725
scalar ws13_network.node[12].content_store 	hits[12] 	6612
scalar ws13_network.node[12].content_store 	misses[12] 	139132
scalar ws13_network.node[12].content_store 	decision_yes[12] 	623
scalar ws13_network.node[12].content_store 	decision_no[12] 	137097
scalar ws13_network.node[12].content_store 	decision_ratio[12] 	0.004523671216962
scalar ws13_network.node[12].content_store 	correction_factor[12] 	0.0027225701061802
scalar ws13_network.node[12].content_store 	kappa[12] 	1
scalar ws13_network.node[13].core_layer 	interests[13] 	0
scalar ws13_network.node[13].core_layer 	data[13] 	0
scalar ws13_network.node[13].content_store 	p_hit[13] 	-nan
scalar ws13_network.node[13].content_store 	hits[13] 	0
scalar ws13_network.node[13].content_store 	misses[13] 	0
scalar ws13_network.node[13].content_store 	decision_yes[13] 	0
scalar ws13_network.node[13].content_store 	decision_no[13] 	0
scalar ws13_network.node[13].content_store 	decision_ratio[13] 	0
scalar ws13_network.node[13].content_store 	correction_factor[13] 	0.0027225701061802
scalar ws13_network.node[13].content_store 	kappa[13] 	1
scalar ws13_network.node[14].core_layer 	interests[14] 	850
scalar ws13_network.node[14].core_layer 	data[14] 	850
scalar ws13_network.node[14].content_store 	p_hit[14] 	0
scalar ws13_network.node[14].content_store 	hits[14] 	0
scalar ws13_network.node[14].content_store 	misses[14] 	850
scalar ws13_network.node[14].content_store 	decision_yes[14] 	0
scalar ws13_network.node[14].content_store 	decision_no[14] 	850
scalar ws13_network.node[14].content_store 	decision_ratio[14] 	0
scalar ws13_network.node[14].content_store 	correction_factor[14] 	0.0027225701061802
scalar ws13_network.node[14].content_store 	kappa[14] 	1
scalar ws13_network.node[15].core_layer 	interests[15] 	78083
scalar ws13_network.node[15].core_layer 	data[15] 	40950
scalar ws13_network.node[15].content_store 	p_hit[15] 	0.47555806001306
scalar ws13_network.node[15].content_store 	hits[15] 	37133
scalar ws13_network.node[15].content_store 	misses[15] 	40950
scalar ws13_network.node[15].content_store 	decision_yes[15] 	57
scalar ws13_network.node[15].content_store 	decision_no[15] 	40893
scalar ws13_network.node[15].content_store 	decision_ratio[15] 	0.0013919413919414
scalar ws13_network.node[15].content_store 	correction_factor[15] 	0.0027225701061802
scalar ws13_network.node[15].content_store 	kappa[15] 	1
scalar ws13_network.node[16].core_layer 	interests[16] 	0
scalar ws13_network.node[16].core_layer 	data[16] 	0
scalar ws13_network.node[16].content_store 	p_hit[16] 	-nan
scalar ws13_network.node[16].content_store 	hits[16] 	0
scalar ws13_network.node[16].content_store 	misses[16] 	0
scalar ws13_network.node[16].content_store 	decision_yes[16] 	0
scalar ws13_network.node[16].content_store 	decision_no[16] 	0
scalar ws13_network.node[16].content_store 	decision_ratio[16] 	0
scalar ws13_network.node[16].content_store 	correction_factor[16] 	0.0027225701061802
scalar ws13_network.node[16].content_store 	kappa[16] 	1
scalar ws13_network.node[17].core_layer 	interests[17] 	49039
scalar ws13_network.node[17].core_layer 	data[17] 	46014
scalar ws13_network.node[17].content_store 	p_hit[17] 	0.061685597177756
scalar ws13_network.node[17].content_store 	hits[17] 	3025
scalar ws13_network.node[17].content_store 	misses[17] 	46014
scalar ws13_network.node[17].content_store 	decision_yes[17] 	62
scalar ws13_network.node[17].content_store 	decision_no[17] 	45952
scalar ws13_network.node[17].content_store 	decision_ratio[17] 	0.0013474160038249
scalar ws13_network.node[17].content_store 	correction_factor[17] 	0.0027225701061802
scalar ws13_network.node[17].content_store 	kappa[17] 	1
scalar ws13_network.node[18].core_layer 	interests[18] 	143694
scalar ws13_network.node[18].core_layer 	data[18] 	138810
scalar ws13_network.node[18].content_store 	p_hit[18] 	0.024691358024691
scalar ws13_network.node[18].content_store 	hits[18] 	3548
scalar ws13_network.node[18].content_store 	misses[18] 	140146
scalar ws13_network.node[18].content_store 	decision_yes[18] 	627
scalar ws13_network.node[18].content_store 	decision_no[18] 	138183
scalar ws13_network.node[18].content_store 	decision_ratio[18] 	0.0045169656364815
scalar ws13_network.node[18].content_store 	correction_factor[18] 	0.0027225701061802
scalar ws13_network.node[18].content_store 	kappa[18] 	1
scalar ws13_network.node[19].core_layer 	interests[19] 	0
scalar ws13_network.node[19].core_layer 	data[19] 	0
scalar ws13_network.node[19].content_store 	p_hit[19] 	-nan
scalar ws13_network.node[19].content_store 	hits[19] 	0
scalar ws13_network.node[19].content_store 	misses[19] 	0
scalar ws13_network.node[19].content_store 	decision_yes[19] 	0
scalar ws13_network.node[19].content_store 	decision_no[19] 	0
scalar ws13_network.node[19].content_store 	decision_ratio[19] 	0
scalar ws13_network.node[19].content_store 	correction_factor[19] 	0.0027225701061802
scalar ws13_network.node[19].content_store 	kappa[19] 	1
scalar ws13_network.node[20].core_layer 	interests[20] 	0
scalar ws13_network.node[20].core_layer 	data[20] 	0
scalar ws13_network.node[20].content_store 	p_hit[20] 	-nan
scalar ws13_network.node[20].content_store 	hits[20] 	0
scalar ws13_network.node[20].content_store 	misses[20] 	0
scalar ws13_network.node[20].content_store 	decision_yes[20] 	0
scalar ws13_network.node[20].content_store 	decision_no[20] 	0
scalar ws13_network.node[20].content_store 	decision_ratio[20] 	0
scalar ws13_network.node[20].content_store 	correction_factor[20] 	0.0027225701061802
scalar ws13_network.node[20].content_store 	kappa[20] 	1
scalar ws13_network.node[21].core_layer 	interests[21] 	0
scalar ws13_network.node[21].core_layer 	data[21] 	0
scalar ws13_network.node[21].content_store 	p_hit[21] 	-nan
scalar ws13_network.node[21].content_store 	hits[21] 	0
scalar ws13_network.node[21].content_store 	misses[21] 	0
scalar ws13_network.node[21].content_store 	decision_yes[21] 	0
scalar ws13_network.node[21].content_store 	decision_no[21] 	0
scalar ws13_network.node[21].content_store 	decision_ratio[21] 	0
scalar ws13_network.node[21].content_store 	correction_factor[21] 	0.0027225701061802
scalar ws13_network.node[21].content_store 	kappa[21] 	1
scalar ws13_network.client[1] 	hdistance[1] 	3.4722533149647
scalar ws13_network.client[1] 	downloads[1] 	139368
scalar ws13_network.client[1] 	avg_time[1] 	0.014424802096
scalar ws13_network.client[1] 	interests_sent[1] 	141579
scalar ws13_network.client[12] 	hdistance[12] 	2.7029965698013
scalar ws13_network.client[12] 	downloads[12] 	139059
scalar ws13_network.client[12] 	avg_time[12] 	0.010502644247
scalar ws13_network.client[12] 	interests_sent[12] 	140472
scalar ws13_network.client[18] 	hdistance[18] 	3.0967917035682
scalar ws13_network.client[18] 	downloads[18] 	140012
scalar ws13_network.client[18] 	avg_time[18] 	0.012534920596
scalar ws13_network.client[18] 	interests_sent[18] 	141348
