version 2
run General-156-20150313-18:08:39-27528
attr D costaware0.01
attr F nrr
attr R lru
attr a 1
attr configname General
attr csize 1e3
attr ctlg 1e5
attr datetime 20150313-18:08:39
attr experiment General
attr inifile omnetpp.ini
attr iterationvars "$rep=11, $net=cost_scenario, $lambda=100, $a=1, $ctlg=1e5, $F=nrr, $ttl=10, $D=costaware0.01, $R=lru, $csize=1e3, $window=60, $variance=0.05, $mytime=1800, $kappa=1, $priceratiovalue=2, $splits=0.333_0.333_0.334, $pricebits=0"
attr iterationvars2 "$rep=11, $net=cost_scenario, $lambda=100, $a=1, $ctlg=1e5, $F=nrr, $ttl=10, $D=costaware0.01, $R=lru, $csize=1e3, $window=60, $variance=0.05, $mytime=1800, $kappa=1, $priceratiovalue=2, $splits=0.333_0.333_0.334, $pricebits=0, $repetition=0"
attr kappa 1
attr lambda 100
attr measurement "$rep=11, $net=cost_scenario, $lambda=100, $a=1, $ctlg=1e5, $F=nrr, $ttl=10, $D=costaware0.01, $R=lru, $csize=1e3, $window=60, $variance=0.05, $mytime=1800, $kappa=1, $priceratiovalue=2, $splits=0.333_0.333_0.334, $pricebits=0"
attr mytime 1800
attr net cost_scenario
attr network networks.${net=cost_scenario}_network
attr pricebits 0
attr priceratiovalue 2
attr processid 27528
attr rep 11
attr repetition 0
attr replication #0
attr resultdir results
attr runnumber 156
attr seedset 11
attr splits 0.333_0.333_0.334
attr ttl 10
attr variance 0.05
attr window 60

scalar . 	a 	1
scalar . 	csize 	1e3
scalar . 	ctlg 	1e5
scalar . 	kappa 	1
scalar . 	lambda 	100
scalar . 	mytime 	1800
scalar . 	pricebits 	0
scalar . 	priceratiovalue 	2
scalar . 	rep 	11
scalar . 	ttl 	10
scalar . 	variance 	0.05
scalar . 	window 	60
scalar cost_scenario_network.content_distribution 	repo-0 	1
scalar cost_scenario_network.content_distribution 	repo-1 	2
scalar cost_scenario_network.content_distribution 	repo-2 	3
scalar cost_scenario_network.content_distribution 	client-0 	0
scalar cost_scenario_network.content_distribution 	repo-0_card 	33093
scalar cost_scenario_network.content_distribution 	repo-0_price 	0
scalar cost_scenario_network.content_distribution 	repo-1_card 	33554
scalar cost_scenario_network.content_distribution 	repo-1_price 	2
scalar cost_scenario_network.content_distribution 	repo-2_card 	33353
scalar cost_scenario_network.content_distribution 	repo-2_price 	1
scalar cost_scenario_network.statistics 	repo_popularity[0] 	0.35827524815875
scalar cost_scenario_network.statistics 	repo_popularity[1] 	0.3260921688144
scalar cost_scenario_network.statistics 	repo_popularity[2] 	0.31563258302686
scalar cost_scenario_network.statistics 	stabilization_time 	1890.7
scalar cost_scenario_network.statistics 	p_hit 	0.21761111995907
scalar cost_scenario_network.statistics 	interests 	73777.25
scalar cost_scenario_network.statistics 	data 	28861.25
scalar cost_scenario_network.statistics 	hdistance 	1.2851211149702
scalar cost_scenario_network.statistics 	avg_time 	0
scalar cost_scenario_network.statistics 	downloads 	179664
scalar cost_scenario_network.statistics 	total_cost 	74804
scalar cost_scenario_network.statistics 	total_replicas 	100000
scalar cost_scenario_network.statistics 	inner_hit 	0.35743944251492
scalar cost_scenario_network.statistics 	interests_sent 	179664
scalar cost_scenario_network.node[0].core_layer 	interests[0] 	179664
scalar cost_scenario_network.node[0].core_layer 	data[0] 	115445
scalar cost_scenario_network.node[0].core_layer 	repo_int[0] 	115445
scalar cost_scenario_network.node[0].content_store 	p_hit[0] 	0.35743944251492
scalar cost_scenario_network.node[0].content_store 	hits[0] 	64219
scalar cost_scenario_network.node[0].content_store 	misses[0] 	115445
scalar cost_scenario_network.node[0].content_store 	decision_yes[0] 	742
scalar cost_scenario_network.node[0].content_store 	decision_no[0] 	114703
scalar cost_scenario_network.node[0].content_store 	decision_ratio[0] 	0.0064273030447399
scalar cost_scenario_network.node[0].content_store 	cache_value[0] 	6.8806480526822
scalar cost_scenario_network.node[0].content_store 	average_price_of_cache[0] 	1.627
scalar cost_scenario_network.node[0].content_store 	correction_factor[0] 	0.00999000999001
scalar cost_scenario_network.node[0].content_store 	kappa[0] 	1
scalar cost_scenario_network.node[1].core_layer 	interests[1] 	64457
scalar cost_scenario_network.node[1].core_layer 	repo_load[1] 	64457
scalar cost_scenario_network.node[1].core_layer 	data[1] 	0
scalar cost_scenario_network.node[1].content_store 	p_hit[1] 	0
scalar cost_scenario_network.node[1].content_store 	hits[1] 	0
scalar cost_scenario_network.node[1].content_store 	misses[1] 	64457
scalar cost_scenario_network.node[1].content_store 	decision_yes[1] 	0
scalar cost_scenario_network.node[1].content_store 	decision_no[1] 	64457
scalar cost_scenario_network.node[1].content_store 	decision_ratio[1] 	0
scalar cost_scenario_network.node[1].content_store 	cache_value[1] 	8.8938614594711e-317
scalar cost_scenario_network.node[1].content_store 	average_price_of_cache[1] 	-nan
scalar cost_scenario_network.node[1].content_store 	correction_factor[1] 	0.00999000999001
scalar cost_scenario_network.node[1].content_store 	kappa[1] 	1
scalar cost_scenario_network.node[2].core_layer 	interests[2] 	23816
scalar cost_scenario_network.node[2].core_layer 	repo_load[2] 	23816
scalar cost_scenario_network.node[2].core_layer 	data[2] 	0
scalar cost_scenario_network.node[2].content_store 	p_hit[2] 	0
scalar cost_scenario_network.node[2].content_store 	hits[2] 	0
scalar cost_scenario_network.node[2].content_store 	misses[2] 	23816
scalar cost_scenario_network.node[2].content_store 	decision_yes[2] 	0
scalar cost_scenario_network.node[2].content_store 	decision_no[2] 	23816
scalar cost_scenario_network.node[2].content_store 	decision_ratio[2] 	0
scalar cost_scenario_network.node[2].content_store 	cache_value[2] 	8.8954503745881e-317
scalar cost_scenario_network.node[2].content_store 	average_price_of_cache[2] 	-nan
scalar cost_scenario_network.node[2].content_store 	correction_factor[2] 	0.00999000999001
scalar cost_scenario_network.node[2].content_store 	kappa[2] 	1
scalar cost_scenario_network.node[3].core_layer 	interests[3] 	27172
scalar cost_scenario_network.node[3].core_layer 	repo_load[3] 	27172
scalar cost_scenario_network.node[3].core_layer 	data[3] 	0
scalar cost_scenario_network.node[3].content_store 	p_hit[3] 	0
scalar cost_scenario_network.node[3].content_store 	hits[3] 	0
scalar cost_scenario_network.node[3].content_store 	misses[3] 	27172
scalar cost_scenario_network.node[3].content_store 	decision_yes[3] 	0
scalar cost_scenario_network.node[3].content_store 	decision_no[3] 	27172
scalar cost_scenario_network.node[3].content_store 	decision_ratio[3] 	0
scalar cost_scenario_network.node[3].content_store 	cache_value[3] 	8.8970392897052e-317
scalar cost_scenario_network.node[3].content_store 	average_price_of_cache[3] 	-nan
scalar cost_scenario_network.node[3].content_store 	correction_factor[3] 	0.00999000999001
scalar cost_scenario_network.node[3].content_store 	kappa[3] 	1
scalar cost_scenario_network.client[0] 	hdistance[0] 	1.2851211149702
scalar cost_scenario_network.client[0] 	downloads[0] 	179664
scalar cost_scenario_network.client[0] 	avg_time[0] 	0
scalar cost_scenario_network.client[0] 	interests_sent[0] 	179664
