version 2
run General-6-20150902-21:12:22-5570
attr C 1e3
attr D fix0.001
attr F spr
attr R partitionedn
attr a 1
attr brates 0.3_0.7_1.5_2.5_3.5
attr configname General
attr ctlg 1e5
attr datetime 20150902-21:12:22
attr experiment General
attr inifile omnetpp.ini
attr iterationvars "$net=abilene_nodelay, $rep=0, $lambda=100, $a=1, $ctlg=1e5, $brates=0.3_0.7_1.5_2.5_3.5, $F=spr, $ttl=1000, $D=fix0.001, $R=partitionedn, $proactiveprob=1, $C=1e3, $window=60, $variance=0.05, $mytime=180000"
attr iterationvars2 "$net=abilene_nodelay, $rep=0, $lambda=100, $a=1, $ctlg=1e5, $brates=0.3_0.7_1.5_2.5_3.5, $F=spr, $ttl=1000, $D=fix0.001, $R=partitionedn, $proactiveprob=1, $C=1e3, $window=60, $variance=0.05, $mytime=180000, $repetition=0"
attr lambda 100
attr measurement "$net=abilene_nodelay, $rep=0, $lambda=100, $a=1, $ctlg=1e5, $brates=0.3_0.7_1.5_2.5_3.5, $F=spr, $ttl=1000, $D=fix0.001, $R=partitionedn, $proactiveprob=1, $C=1e3, $window=60, $variance=0.05, $mytime=180000"
attr mytime 180000
attr net abilene_nodelay
attr network networks.${net=abilene_nodelay}_network
attr proactiveprob 1
attr processid 5570
attr rep 0
attr repetition 0
attr replication #0
attr resultdir results
attr runnumber 6
attr seedset 0
attr ttl 1000
attr variance 0.05
attr window 60

scalar . 	C 	1e3
scalar . 	a 	1
scalar . 	ctlg 	1e5
scalar . 	lambda 	100
scalar . 	mytime 	180000
scalar . 	proactiveprob 	1
scalar . 	rep 	0
scalar . 	ttl 	1000
scalar . 	variance 	0.05
scalar . 	window 	60
scalar abilene_nodelay_network.content_distribution 	repo-0 	5
scalar abilene_nodelay_network.content_distribution 	repo-1 	8
scalar abilene_nodelay_network.content_distribution 	repo-2 	9
scalar abilene_nodelay_network.content_distribution 	repo-3 	0
scalar abilene_nodelay_network.content_distribution 	repo-4 	1
scalar abilene_nodelay_network.content_distribution 	repo-5 	7
scalar abilene_nodelay_network.content_distribution 	repo-6 	6
scalar abilene_nodelay_network.content_distribution 	repo-7 	2
scalar abilene_nodelay_network.content_distribution 	repo-8 	4
scalar abilene_nodelay_network.content_distribution 	repo-9 	10
scalar abilene_nodelay_network.content_distribution 	repo-10 	3
scalar abilene_nodelay_network.content_distribution 	client-0 	10
scalar abilene_nodelay_network.content_distribution 	client-1 	9
scalar abilene_nodelay_network.content_distribution 	client-2 	8
scalar abilene_nodelay_network.content_distribution 	client-3 	7
scalar abilene_nodelay_network.content_distribution 	client-4 	3
scalar abilene_nodelay_network.content_distribution 	client-5 	6
scalar abilene_nodelay_network.content_distribution 	client-6 	5
scalar abilene_nodelay_network.content_distribution 	client-7 	1
scalar abilene_nodelay_network.content_distribution 	client-8 	4
scalar abilene_nodelay_network.content_distribution 	client-9 	0
scalar abilene_nodelay_network.content_distribution 	client-10 	2
scalar abilene_nodelay_network.content_distribution 	repo-0_card 	9071
scalar abilene_nodelay_network.content_distribution 	repo-0_price 	0
scalar abilene_nodelay_network.content_distribution 	repo-1_card 	8986
scalar abilene_nodelay_network.content_distribution 	repo-1_price 	0
scalar abilene_nodelay_network.content_distribution 	repo-2_card 	9050
scalar abilene_nodelay_network.content_distribution 	repo-2_price 	0
scalar abilene_nodelay_network.content_distribution 	repo-3_card 	8986
scalar abilene_nodelay_network.content_distribution 	repo-3_price 	0
scalar abilene_nodelay_network.content_distribution 	repo-4_card 	9064
scalar abilene_nodelay_network.content_distribution 	repo-4_price 	0
scalar abilene_nodelay_network.content_distribution 	repo-5_card 	9170
scalar abilene_nodelay_network.content_distribution 	repo-5_price 	0
scalar abilene_nodelay_network.content_distribution 	repo-6_card 	9151
scalar abilene_nodelay_network.content_distribution 	repo-6_price 	0
scalar abilene_nodelay_network.content_distribution 	repo-7_card 	9112
scalar abilene_nodelay_network.content_distribution 	repo-7_price 	0
scalar abilene_nodelay_network.content_distribution 	repo-8_card 	9132
scalar abilene_nodelay_network.content_distribution 	repo-8_price 	0
scalar abilene_nodelay_network.content_distribution 	repo-9_card 	9101
scalar abilene_nodelay_network.content_distribution 	repo-9_price 	0
scalar abilene_nodelay_network.content_distribution 	repo-10_card 	9177
scalar abilene_nodelay_network.content_distribution 	repo-10_price 	0
scalar abilene_nodelay_network.statistics 	stabilization_time 	36060
scalar abilene_nodelay_network.statistics 	p_hit 	0.28535271847553
scalar abilene_nodelay_network.statistics 	interests 	39050163.363636
scalar abilene_nodelay_network.statistics 	data 	18594836.636364
scalar abilene_nodelay_network.statistics 	hdistance 	1.253736839907
scalar abilene_nodelay_network.statistics 	avg_time 	0
scalar abilene_nodelay_network.statistics 	downloads 	197980075
scalar abilene_nodelay_network.statistics 	total_cost 	0
scalar abilene_nodelay_network.statistics 	total_replicas 	100000
scalar abilene_nodelay_network.statistics 	"representations_downloaded 0.444003:0.0347697:0.0310194:0.029932:0.460276:" 	0
scalar abilene_nodelay_network.statistics 	"slots_per_representation 100:233:500:833:1167:" 	0
scalar abilene_nodelay_network.statistics 	inner_hit 	0.48260035258599
scalar abilene_nodelay_network.statistics 	execution_time 	8942
scalar abilene_nodelay_network.node[0].core_layer 	interests[0] 	26121861
scalar abilene_nodelay_network.node[0].core_layer 	repo_load[0] 	8266473
scalar abilene_nodelay_network.node[0].core_layer 	data[0] 	8175166
scalar abilene_nodelay_network.node[0].core_layer 	slots_sent[face$o[1]->client[0]] 	11945949453
scalar abilene_nodelay_network.node[0].core_layer 	slots_sent[face$o[2]->node[1]] 	1417834030
scalar abilene_nodelay_network.node[0].core_layer 	slots_sent[face$o[3]->node[10]] 	328117253
scalar abilene_nodelay_network.node[0].content_store 	p_hit[0] 	0.37057933965731
scalar abilene_nodelay_network.node[0].content_store 	hits[0] 	9680222
scalar abilene_nodelay_network.node[0].content_store 	misses[0] 	16441639
scalar abilene_nodelay_network.node[0].content_store 	decision_yes[0] 	8192
scalar abilene_nodelay_network.node[0].content_store 	decision_no[0] 	16433447
scalar abilene_nodelay_network.node[0].content_store 	decision_ratio[0] 	0.00049824716380161
scalar abilene_nodelay_network.node[0].content_store 	"representation_breakdown[0] 0x7fff27c891e8:0x7fff27c891e8:0x7fff27c891e8:0x7fff27c891e8:0x7fff27c891e8:" 	0
scalar abilene_nodelay_network.node[0].proactive_component 	hdistance[0].proactive_component 	2.2894682166012
scalar abilene_nodelay_network.node[0].proactive_component 	downloads[0].proactive_component 	1419845
scalar abilene_nodelay_network.node[0].proactive_component 	avg_time[0].proactive_component 	0
scalar abilene_nodelay_network.node[1].core_layer 	interests[1] 	45466767
scalar abilene_nodelay_network.node[1].core_layer 	repo_load[1] 	9604433
scalar abilene_nodelay_network.node[1].core_layer 	data[1] 	24156423
scalar abilene_nodelay_network.node[1].core_layer 	slots_sent[face$o[1]->client[1]] 	10716809319
scalar abilene_nodelay_network.node[1].core_layer 	slots_sent[face$o[2]->node[0]] 	1850632733
scalar abilene_nodelay_network.node[1].core_layer 	slots_sent[face$o[3]->node[10]] 	1365656210
scalar abilene_nodelay_network.node[1].core_layer 	slots_sent[face$o[4]->node[2]] 	3595219774
scalar abilene_nodelay_network.node[1].content_store 	p_hit[1] 	0.25746081748016
scalar abilene_nodelay_network.node[1].content_store 	hits[1] 	11705911
scalar abilene_nodelay_network.node[1].content_store 	misses[1] 	33760856
scalar abilene_nodelay_network.node[1].content_store 	decision_yes[1] 	24042
scalar abilene_nodelay_network.node[1].content_store 	decision_no[1] 	33736814
scalar abilene_nodelay_network.node[1].content_store 	decision_ratio[1] 	0.00071212649347517
scalar abilene_nodelay_network.node[1].content_store 	"representation_breakdown[1] 0x7fff27c891e8:0x7fff27c891e8:0x7fff27c891e8:0x7fff27c891e8:0x7fff27c891e8:" 	0
scalar abilene_nodelay_network.node[1].proactive_component 	hdistance[1].proactive_component 	2.1872658843983
scalar abilene_nodelay_network.node[1].proactive_component 	downloads[1].proactive_component 	3947836
scalar abilene_nodelay_network.node[1].proactive_component 	avg_time[1].proactive_component 	0
scalar abilene_nodelay_network.node[2].core_layer 	interests[2] 	60397173
scalar abilene_nodelay_network.node[2].core_layer 	repo_load[2] 	11070467
scalar abilene_nodelay_network.node[2].core_layer 	data[2] 	35773034
scalar abilene_nodelay_network.node[2].core_layer 	slots_sent[face$o[1]->client[2]] 	10474103239
scalar abilene_nodelay_network.node[2].core_layer 	slots_sent[face$o[2]->node[1]] 	4107414576
scalar abilene_nodelay_network.node[2].core_layer 	slots_sent[face$o[3]->node[3]] 	5017690014
scalar abilene_nodelay_network.node[2].core_layer 	slots_sent[face$o[4]->node[8]] 	1978042058
scalar abilene_nodelay_network.node[2].content_store 	p_hit[2] 	0.22440904643004
scalar abilene_nodelay_network.node[2].content_store 	hits[2] 	13553672
scalar abilene_nodelay_network.node[2].content_store 	misses[2] 	46843501
scalar abilene_nodelay_network.node[2].content_store 	decision_yes[2] 	36161
scalar abilene_nodelay_network.node[2].content_store 	decision_no[2] 	46807340
scalar abilene_nodelay_network.node[2].content_store 	decision_ratio[2] 	0.00077195340288507
scalar abilene_nodelay_network.node[2].content_store 	"representation_breakdown[2] 0x7fff27c891e8:0x7fff27c891e8:0x7fff27c891e8:0x7fff27c891e8:0x7fff27c891e8:" 	0
scalar abilene_nodelay_network.node[2].proactive_component 	hdistance[2].proactive_component 	2.1984549541012
scalar abilene_nodelay_network.node[2].proactive_component 	downloads[2].proactive_component 	5434790
scalar abilene_nodelay_network.node[2].proactive_component 	avg_time[2].proactive_component 	0
scalar abilene_nodelay_network.node[3].core_layer 	interests[3] 	56736889
scalar abilene_nodelay_network.node[3].core_layer 	repo_load[3] 	9640778
scalar abilene_nodelay_network.node[3].core_layer 	data[3] 	33251923
scalar abilene_nodelay_network.node[3].core_layer 	slots_sent[face$o[1]->client[3]] 	11262808304
scalar abilene_nodelay_network.node[3].core_layer 	slots_sent[face$o[2]->node[2]] 	4774299632
scalar abilene_nodelay_network.node[3].core_layer 	slots_sent[face$o[3]->node[4]] 	3027048931
scalar abilene_nodelay_network.node[3].core_layer 	slots_sent[face$o[4]->node[7]] 	2181548865
scalar abilene_nodelay_network.node[3].content_store 	p_hit[3] 	0.24400682243963
scalar abilene_nodelay_network.node[3].content_store 	hits[3] 	13844188
scalar abilene_nodelay_network.node[3].content_store 	misses[3] 	42892701
scalar abilene_nodelay_network.node[3].content_store 	decision_yes[3] 	33184
scalar abilene_nodelay_network.node[3].content_store 	decision_no[3] 	42859517
scalar abilene_nodelay_network.node[3].content_store 	decision_ratio[3] 	0.00077365144246803
scalar abilene_nodelay_network.node[3].content_store 	"representation_breakdown[3] 0x7fff27c891e8:0x7fff27c891e8:0x7fff27c891e8:0x7fff27c891e8:0x7fff27c891e8:" 	0
scalar abilene_nodelay_network.node[3].proactive_component 	hdistance[3].proactive_component 	2.1834423903885
scalar abilene_nodelay_network.node[3].proactive_component 	downloads[3].proactive_component 	5235333
scalar abilene_nodelay_network.node[3].proactive_component 	avg_time[3].proactive_component 	0
scalar abilene_nodelay_network.node[4].core_layer 	interests[4] 	34964473
scalar abilene_nodelay_network.node[4].core_layer 	repo_load[4] 	8610075
scalar abilene_nodelay_network.node[4].core_layer 	data[4] 	15392513
scalar abilene_nodelay_network.node[4].core_layer 	slots_sent[face$o[1]->client[4]] 	11778087021
scalar abilene_nodelay_network.node[4].core_layer 	slots_sent[face$o[2]->node[3]] 	2605982380
scalar abilene_nodelay_network.node[4].core_layer 	slots_sent[face$o[3]->node[5]] 	1600084319
scalar abilene_nodelay_network.node[4].content_store 	p_hit[4] 	0.31351494987498
scalar abilene_nodelay_network.node[4].content_store 	hits[4] 	10961885
scalar abilene_nodelay_network.node[4].content_store 	misses[4] 	24002588
scalar abilene_nodelay_network.node[4].content_store 	decision_yes[4] 	15357
scalar abilene_nodelay_network.node[4].content_store 	decision_no[4] 	23987231
scalar abilene_nodelay_network.node[4].content_store 	decision_ratio[4] 	0.00063980600758552
scalar abilene_nodelay_network.node[4].content_store 	"representation_breakdown[4] 0x7fff27c891e8:0x7fff27c891e8:0x7fff27c891e8:0x7fff27c891e8:0x7fff27c891e8:" 	0
scalar abilene_nodelay_network.node[4].proactive_component 	hdistance[4].proactive_component 	2.2181900253118
scalar abilene_nodelay_network.node[4].proactive_component 	downloads[4].proactive_component 	2505582
scalar abilene_nodelay_network.node[4].proactive_component 	avg_time[4].proactive_component 	0
scalar abilene_nodelay_network.node[5].core_layer 	interests[5] 	28214958
scalar abilene_nodelay_network.node[5].core_layer 	repo_load[5] 	9915868
scalar abilene_nodelay_network.node[5].core_layer 	data[5] 	9757637
scalar abilene_nodelay_network.node[5].core_layer 	slots_sent[face$o[1]->client[5]] 	10420715149
scalar abilene_nodelay_network.node[5].core_layer 	slots_sent[face$o[2]->node[4]] 	1369757789
scalar abilene_nodelay_network.node[5].core_layer 	slots_sent[face$o[3]->node[6]] 	891827511
scalar abilene_nodelay_network.node[5].content_store 	p_hit[5] 	0.30272782968523
scalar abilene_nodelay_network.node[5].content_store 	hits[5] 	8541453
scalar abilene_nodelay_network.node[5].content_store 	misses[5] 	19673505
scalar abilene_nodelay_network.node[5].content_store 	decision_yes[5] 	9849
scalar abilene_nodelay_network.node[5].content_store 	decision_no[5] 	19663656
scalar abilene_nodelay_network.node[5].content_store 	decision_ratio[5] 	0.00050062253777352
scalar abilene_nodelay_network.node[5].content_store 	"representation_breakdown[5] 0x7fff27c891e8:0x7fff27c891e8:0x7fff27c891e8:0x7fff27c891e8:0x7fff27c891e8:" 	0
scalar abilene_nodelay_network.node[5].proactive_component 	hdistance[5].proactive_component 	2.2259568101258
scalar abilene_nodelay_network.node[5].proactive_component 	downloads[5].proactive_component 	1669558
scalar abilene_nodelay_network.node[5].proactive_component 	avg_time[5].proactive_component 	0
scalar abilene_nodelay_network.node[6].core_layer 	interests[6] 	31639003
scalar abilene_nodelay_network.node[6].core_layer 	repo_load[6] 	8624751
scalar abilene_nodelay_network.node[6].core_layer 	data[6] 	12580439
scalar abilene_nodelay_network.node[6].core_layer 	slots_sent[face$o[1]->client[6]] 	11861295346
scalar abilene_nodelay_network.node[6].core_layer 	slots_sent[face$o[2]->node[5]] 	1064400764
scalar abilene_nodelay_network.node[6].core_layer 	slots_sent[face$o[3]->node[7]] 	2069722807
scalar abilene_nodelay_network.node[6].content_store 	p_hit[6] 	0.32977692122599
scalar abilene_nodelay_network.node[6].content_store 	hits[6] 	10433813
scalar abilene_nodelay_network.node[6].content_store 	misses[6] 	21205190
scalar abilene_nodelay_network.node[6].content_store 	decision_yes[6] 	12423
scalar abilene_nodelay_network.node[6].content_store 	decision_no[6] 	21192767
scalar abilene_nodelay_network.node[6].content_store 	decision_ratio[6] 	0.00058584714402465
scalar abilene_nodelay_network.node[6].content_store 	"representation_breakdown[6] 0x7fff27c891e8:0x7fff27c891e8:0x7fff27c891e8:0x7fff27c891e8:0x7fff27c891e8:" 	0
scalar abilene_nodelay_network.node[6].proactive_component 	hdistance[6].proactive_component 	2.1848168920057
scalar abilene_nodelay_network.node[6].proactive_component 	downloads[6].proactive_component 	2055126
scalar abilene_nodelay_network.node[6].proactive_component 	avg_time[6].proactive_component 	0
scalar abilene_nodelay_network.node[7].core_layer 	interests[7] 	42902184
scalar abilene_nodelay_network.node[7].core_layer 	repo_load[7] 	9405755
scalar abilene_nodelay_network.node[7].core_layer 	data[7] 	21324942
scalar abilene_nodelay_network.node[7].core_layer 	slots_sent[face$o[1]->client[7]] 	11790648740
scalar abilene_nodelay_network.node[7].core_layer 	slots_sent[face$o[2]->node[3]] 	1886328313
scalar abilene_nodelay_network.node[7].core_layer 	slots_sent[face$o[3]->node[6]] 	2405801697
scalar abilene_nodelay_network.node[7].core_layer 	slots_sent[face$o[4]->node[8]] 	1666660678
scalar abilene_nodelay_network.node[7].content_store 	p_hit[7] 	0.28370320261551
scalar abilene_nodelay_network.node[7].content_store 	hits[7] 	12171487
scalar abilene_nodelay_network.node[7].content_store 	misses[7] 	30730697
scalar abilene_nodelay_network.node[7].content_store 	decision_yes[7] 	21305
scalar abilene_nodelay_network.node[7].content_store 	decision_no[7] 	30709392
scalar abilene_nodelay_network.node[7].content_store 	decision_ratio[7] 	0.00069328072838699
scalar abilene_nodelay_network.node[7].content_store 	"representation_breakdown[7] 0x7fff27c891e8:0x7fff27c891e8:0x7fff27c891e8:0x7fff27c891e8:0x7fff27c891e8:" 	0
scalar abilene_nodelay_network.node[7].proactive_component 	hdistance[7].proactive_component 	2.1328802774096
scalar abilene_nodelay_network.node[7].proactive_component 	downloads[7].proactive_component 	3486251
scalar abilene_nodelay_network.node[7].proactive_component 	avg_time[7].proactive_component 	0
scalar abilene_nodelay_network.node[8].core_layer 	interests[8] 	40932905
scalar abilene_nodelay_network.node[8].core_layer 	repo_load[8] 	8762869
scalar abilene_nodelay_network.node[8].core_layer 	data[8] 	20289625
scalar abilene_nodelay_network.node[8].core_layer 	slots_sent[face$o[1]->client[8]] 	11761547424
scalar abilene_nodelay_network.node[8].core_layer 	slots_sent[face$o[2]->node[2]] 	1671019223
scalar abilene_nodelay_network.node[8].core_layer 	slots_sent[face$o[3]->node[7]] 	1616069478
scalar abilene_nodelay_network.node[8].core_layer 	slots_sent[face$o[4]->node[9]] 	2138634979
scalar abilene_nodelay_network.node[8].content_store 	p_hit[8] 	0.29024109087786
scalar abilene_nodelay_network.node[8].content_store 	hits[8] 	11880411
scalar abilene_nodelay_network.node[8].content_store 	misses[8] 	29052494
scalar abilene_nodelay_network.node[8].content_store 	decision_yes[8] 	20304
scalar abilene_nodelay_network.node[8].content_store 	decision_no[8] 	29032190
scalar abilene_nodelay_network.node[8].content_store 	decision_ratio[8] 	0.00069887287473495
scalar abilene_nodelay_network.node[8].content_store 	"representation_breakdown[8] 0x7fff27c891e8:0x7fff27c891e8:0x7fff27c891e8:0x7fff27c891e8:0x7fff27c891e8:" 	0
scalar abilene_nodelay_network.node[8].proactive_component 	hdistance[8].proactive_component 	2.0955203112524
scalar abilene_nodelay_network.node[8].proactive_component 	downloads[8].proactive_component 	3313065
scalar abilene_nodelay_network.node[8].proactive_component 	avg_time[8].proactive_component 	0
scalar abilene_nodelay_network.node[9].core_layer 	interests[9] 	31674948
scalar abilene_nodelay_network.node[9].core_layer 	repo_load[9] 	9024350
scalar abilene_nodelay_network.node[9].core_layer 	data[9] 	12488859
scalar abilene_nodelay_network.node[9].core_layer 	slots_sent[face$o[1]->client[9]] 	11562657761
scalar abilene_nodelay_network.node[9].core_layer 	slots_sent[face$o[2]->node[10]] 	1203004811
scalar abilene_nodelay_network.node[9].core_layer 	slots_sent[face$o[3]->node[8]] 	1869529288
scalar abilene_nodelay_network.node[9].content_store 	p_hit[9] 	0.3208131233554
scalar abilene_nodelay_network.node[9].content_store 	hits[9] 	10161739
scalar abilene_nodelay_network.node[9].content_store 	misses[9] 	21513209
scalar abilene_nodelay_network.node[9].content_store 	decision_yes[9] 	12613
scalar abilene_nodelay_network.node[9].content_store 	decision_no[9] 	21500596
scalar abilene_nodelay_network.node[9].content_store 	decision_ratio[9] 	0.00058629096198526
scalar abilene_nodelay_network.node[9].content_store 	"representation_breakdown[9] 0x7fff27c891e8:0x7fff27c891e8:0x7fff27c891e8:0x7fff27c891e8:0x7fff27c891e8:" 	0
scalar abilene_nodelay_network.node[9].proactive_component 	hdistance[9].proactive_component 	2.1877955486434
scalar abilene_nodelay_network.node[9].proactive_component 	downloads[9].proactive_component 	1998402
scalar abilene_nodelay_network.node[9].proactive_component 	avg_time[9].proactive_component 	0
scalar abilene_nodelay_network.node[10].core_layer 	interests[10] 	30500636
scalar abilene_nodelay_network.node[10].core_layer 	repo_load[10] 	9509002
scalar abilene_nodelay_network.node[10].core_layer 	data[10] 	11352642
scalar abilene_nodelay_network.node[10].core_layer 	slots_sent[face$o[1]->client[10]] 	11170052371
scalar abilene_nodelay_network.node[10].core_layer 	slots_sent[face$o[2]->node[0]] 	420788695
scalar abilene_nodelay_network.node[10].core_layer 	slots_sent[face$o[3]->node[1]] 	1220074907
scalar abilene_nodelay_network.node[10].core_layer 	slots_sent[face$o[4]->node[9]] 	1034786719
scalar abilene_nodelay_network.node[10].content_store 	p_hit[10] 	0.31602593467231
scalar abilene_nodelay_network.node[10].content_store 	hits[10] 	9638992
scalar abilene_nodelay_network.node[10].content_store 	misses[10] 	20861644
scalar abilene_nodelay_network.node[10].content_store 	decision_yes[10] 	11150
scalar abilene_nodelay_network.node[10].content_store 	decision_no[10] 	20850494
scalar abilene_nodelay_network.node[10].content_store 	decision_ratio[10] 	0.00053447369727908
scalar abilene_nodelay_network.node[10].content_store 	"representation_breakdown[10] 0x7fff27c891e8:0x7fff27c891e8:0x7fff27c891e8:0x7fff27c891e8:0x7fff27c891e8:" 	0
scalar abilene_nodelay_network.node[10].proactive_component 	hdistance[10].proactive_component 	2.1315294924057
scalar abilene_nodelay_network.node[10].proactive_component 	downloads[10].proactive_component 	1931582
scalar abilene_nodelay_network.node[10].proactive_component 	avg_time[10].proactive_component 	0
scalar abilene_nodelay_network.client[0] 	hdistance[0].real 	1.3862084067087
scalar abilene_nodelay_network.client[0] 	downloads[0].real 	17997674
scalar abilene_nodelay_network.client[0] 	avg_time[0].real 	0
scalar abilene_nodelay_network.client[1] 	hdistance[1].real 	1.2505733134428
scalar abilene_nodelay_network.client[1] 	downloads[1].real 	17997136
scalar abilene_nodelay_network.client[1] 	avg_time[1].real 	0
scalar abilene_nodelay_network.client[2] 	hdistance[2].real 	1.1465606420248
scalar abilene_nodelay_network.client[2] 	downloads[2].real 	17996571
scalar abilene_nodelay_network.client[2] 	avg_time[2].real 	0
scalar abilene_nodelay_network.client[3] 	hdistance[3].real 	1.1301731860226
scalar abilene_nodelay_network.client[3] 	downloads[3].real 	17999836
scalar abilene_nodelay_network.client[3] 	avg_time[3].real 	0
scalar abilene_nodelay_network.client[4] 	hdistance[4].real 	1.2864531093524
scalar abilene_nodelay_network.client[4] 	downloads[4].real 	18003910
scalar abilene_nodelay_network.client[4] 	avg_time[4].real 	0
scalar abilene_nodelay_network.client[5] 	hdistance[5].real 	1.4636698414293
scalar abilene_nodelay_network.client[5] 	downloads[5].real 	17998091
scalar abilene_nodelay_network.client[5] 	avg_time[5].real 	0
scalar abilene_nodelay_network.client[6] 	hdistance[6].real 	1.3118964827693
scalar abilene_nodelay_network.client[6] 	downloads[6].real 	18002800
scalar abilene_nodelay_network.client[6] 	avg_time[6].real 	0
scalar abilene_nodelay_network.client[7] 	hdistance[7].real 	1.1287965209571
scalar abilene_nodelay_network.client[7] 	downloads[7].real 	17996674
scalar abilene_nodelay_network.client[7] 	avg_time[7].real 	0
scalar abilene_nodelay_network.client[8] 	hdistance[8].real 	1.1108674184729
scalar abilene_nodelay_network.client[8] 	downloads[8].real 	17994890
scalar abilene_nodelay_network.client[8] 	avg_time[8].real 	0
scalar abilene_nodelay_network.client[9] 	hdistance[9].real 	1.2596961011582
scalar abilene_nodelay_network.client[9] 	downloads[9].real 	17998884
scalar abilene_nodelay_network.client[9] 	avg_time[9].real 	0
scalar abilene_nodelay_network.client[10] 	hdistance[10].real 	1.3162102166386
scalar abilene_nodelay_network.client[10] 	downloads[10].real 	17993609
scalar abilene_nodelay_network.client[10] 	avg_time[10].real 	0
