version 2
run General-4-20150311-19:33:40-15747
attr D costaware0.01
attr F nrr
attr R lru
attr a 0.8
attr configname General
attr csize 1e3
attr ctlg 1e5
attr datetime 20150311-19:33:40
attr experiment General
attr inifile omnetpp.ini
attr iterationvars "$rep=27, $net=geant_cost, $lambda=100, $a=0.8, $ctlg=1e5, $F=nrr, $ttl=10, $D=costaware0.01, $R=lru, $csize=1e3, $window=60, $variance=0.05, $mytime=1800, $kappa=1, $priceratiovalue=10, $pricebits=0"
attr iterationvars2 "$rep=27, $net=geant_cost, $lambda=100, $a=0.8, $ctlg=1e5, $F=nrr, $ttl=10, $D=costaware0.01, $R=lru, $csize=1e3, $window=60, $variance=0.05, $mytime=1800, $kappa=1, $priceratiovalue=10, $pricebits=0, $repetition=0"
attr kappa 1
attr lambda 100
attr measurement "$rep=27, $net=geant_cost, $lambda=100, $a=0.8, $ctlg=1e5, $F=nrr, $ttl=10, $D=costaware0.01, $R=lru, $csize=1e3, $window=60, $variance=0.05, $mytime=1800, $kappa=1, $priceratiovalue=10, $pricebits=0"
attr mytime 1800
attr net geant_cost
attr network networks.${net=geant_cost}_network
attr pricebits 0
attr priceratiovalue 10
attr processid 15747
attr rep 27
attr repetition 0
attr replication #0
attr resultdir results
attr runnumber 4
attr seedset 27
attr ttl 10
attr variance 0.05
attr window 60

scalar . 	a 	0.8
scalar . 	csize 	1e3
scalar . 	ctlg 	1e5
scalar . 	kappa 	1
scalar . 	lambda 	100
scalar . 	mytime 	1800
scalar . 	pricebits 	0
scalar . 	priceratiovalue 	10
scalar . 	rep 	27
scalar . 	ttl 	10
scalar . 	variance 	0.05
scalar . 	window 	60
scalar geant_cost_network.content_distribution 	repo-0 	18
scalar geant_cost_network.content_distribution 	repo-1 	6
scalar geant_cost_network.content_distribution 	repo-2 	9
scalar geant_cost_network.content_distribution 	client-0 	3
scalar geant_cost_network.content_distribution 	client-1 	2
scalar geant_cost_network.content_distribution 	client-2 	13
scalar geant_cost_network.content_distribution 	client-3 	14
scalar geant_cost_network.content_distribution 	client-4 	16
scalar geant_cost_network.content_distribution 	client-5 	10
scalar geant_cost_network.content_distribution 	client-6 	1
scalar geant_cost_network.content_distribution 	client-7 	17
scalar geant_cost_network.content_distribution 	client-8 	11
scalar geant_cost_network.content_distribution 	client-9 	19
scalar geant_cost_network.content_distribution 	client-10 	5
scalar geant_cost_network.content_distribution 	client-11 	4
scalar geant_cost_network.content_distribution 	client-12 	7
scalar geant_cost_network.content_distribution 	client-13 	20
scalar geant_cost_network.content_distribution 	client-14 	8
scalar geant_cost_network.content_distribution 	client-15 	9
scalar geant_cost_network.content_distribution 	client-16 	6
scalar geant_cost_network.content_distribution 	client-17 	12
scalar geant_cost_network.content_distribution 	client-18 	21
scalar geant_cost_network.content_distribution 	client-19 	0
scalar geant_cost_network.content_distribution 	client-20 	18
scalar geant_cost_network.content_distribution 	client-21 	15
scalar geant_cost_network.content_distribution 	repo-0_card 	33262
scalar geant_cost_network.content_distribution 	repo-0_price 	0
scalar geant_cost_network.content_distribution 	repo-1_card 	33479
scalar geant_cost_network.content_distribution 	repo-1_price 	1
scalar geant_cost_network.content_distribution 	repo-2_card 	33259
scalar geant_cost_network.content_distribution 	repo-2_price 	10
scalar geant_cost_network.statistics 	repo_popularity[0] 	0.33330315063917
scalar geant_cost_network.statistics 	repo_popularity[1] 	0.31719264325355
scalar geant_cost_network.statistics 	repo_popularity[2] 	0.34950420610728
scalar geant_cost_network.statistics 	stabilization_time 	143.5
scalar geant_cost_network.statistics 	p_hit 	0.052815878606774
scalar geant_cost_network.statistics 	interests 	614196.31818182
scalar geant_cost_network.statistics 	data 	433953.36363636
scalar geant_cost_network.statistics 	hdistance 	3.233847046791
scalar geant_cost_network.statistics 	avg_time 	0.015964929171
scalar geant_cost_network.statistics 	downloads 	3960034
scalar geant_cost_network.statistics 	total_cost 	10147290
scalar geant_cost_network.statistics 	total_replicas 	100000
scalar geant_cost_network.statistics 	inner_hit 	0.18353933324815
scalar geant_cost_network.statistics 	interests_sent 	3965352
scalar geant_cost_network.node[0].core_layer 	interests[0] 	207659
scalar geant_cost_network.node[0].core_layer 	data[0] 	187930
scalar geant_cost_network.node[0].core_layer 	repo_int[0] 	3233212
scalar geant_cost_network.node[0].content_store 	p_hit[0] 	0.088452703711373
scalar geant_cost_network.node[0].content_store 	hits[0] 	18368
scalar geant_cost_network.node[0].content_store 	misses[0] 	189291
scalar geant_cost_network.node[0].content_store 	decision_yes[0] 	1116
scalar geant_cost_network.node[0].content_store 	decision_no[0] 	186814
scalar geant_cost_network.node[0].content_store 	decision_ratio[0] 	0.0059383813121907
scalar geant_cost_network.node[0].content_store 	cache_value[0] 	2.3505530114923
scalar geant_cost_network.node[0].content_store 	average_price_of_cache[0] 	7.6521739130435
scalar geant_cost_network.node[0].content_store 	correction_factor[0] 	0.0027225701061802
scalar geant_cost_network.node[0].content_store 	kappa[0] 	1
scalar geant_cost_network.node[1].core_layer 	interests[1] 	380046
scalar geant_cost_network.node[1].core_layer 	data[1] 	359740
scalar geant_cost_network.node[1].content_store 	p_hit[1] 	0.051085921177963
scalar geant_cost_network.node[1].content_store 	hits[1] 	19415
scalar geant_cost_network.node[1].content_store 	misses[1] 	360631
scalar geant_cost_network.node[1].content_store 	decision_yes[1] 	2569
scalar geant_cost_network.node[1].content_store 	decision_no[1] 	357170
scalar geant_cost_network.node[1].content_store 	decision_ratio[1] 	0.0071412885453065
scalar geant_cost_network.node[1].content_store 	cache_value[1] 	1.8865043486043
scalar geant_cost_network.node[1].content_store 	average_price_of_cache[1] 	7.0652173913043
scalar geant_cost_network.node[1].content_store 	correction_factor[1] 	0.0027225701061802
scalar geant_cost_network.node[1].content_store 	kappa[1] 	1
scalar geant_cost_network.node[2].core_layer 	interests[2] 	193676
scalar geant_cost_network.node[2].core_layer 	data[2] 	179130
scalar geant_cost_network.node[2].content_store 	p_hit[2] 	0.073395774386088
scalar geant_cost_network.node[2].content_store 	hits[2] 	14215
scalar geant_cost_network.node[2].content_store 	misses[2] 	179461
scalar geant_cost_network.node[2].content_store 	decision_yes[2] 	1198
scalar geant_cost_network.node[2].content_store 	decision_no[2] 	177932
scalar geant_cost_network.node[2].content_store 	decision_ratio[2] 	0.0066878803103891
scalar geant_cost_network.node[2].content_store 	cache_value[2] 	1.7629531073036
scalar geant_cost_network.node[2].content_store 	average_price_of_cache[2] 	8.4347826086957
scalar geant_cost_network.node[2].content_store 	correction_factor[2] 	0.0027225701061802
scalar geant_cost_network.node[2].content_store 	kappa[2] 	1
scalar geant_cost_network.node[3].core_layer 	interests[3] 	1062086
scalar geant_cost_network.node[3].core_layer 	data[3] 	1033368
scalar geant_cost_network.node[3].content_store 	p_hit[3] 	0.025200407499958
scalar geant_cost_network.node[3].content_store 	hits[3] 	26765
scalar geant_cost_network.node[3].content_store 	misses[3] 	1035321
scalar geant_cost_network.node[3].content_store 	decision_yes[3] 	6320
scalar geant_cost_network.node[3].content_store 	decision_no[3] 	1027048
scalar geant_cost_network.node[3].content_store 	decision_ratio[3] 	0.0061159238528772
scalar geant_cost_network.node[3].content_store 	cache_value[3] 	2.391287203351
scalar geant_cost_network.node[3].content_store 	average_price_of_cache[3] 	7.8478260869565
scalar geant_cost_network.node[3].content_store 	correction_factor[3] 	0.0027225701061802
scalar geant_cost_network.node[3].content_store 	kappa[3] 	1
scalar geant_cost_network.node[4].core_layer 	interests[4] 	1192978
scalar geant_cost_network.node[4].core_layer 	data[4] 	1127540
scalar geant_cost_network.node[4].content_store 	p_hit[4] 	0.051736913840825
scalar geant_cost_network.node[4].content_store 	hits[4] 	61721
scalar geant_cost_network.node[4].content_store 	misses[4] 	1131257
scalar geant_cost_network.node[4].content_store 	decision_yes[4] 	5462
scalar geant_cost_network.node[4].content_store 	decision_no[4] 	1122077
scalar geant_cost_network.node[4].content_store 	decision_ratio[4] 	0.0048441783388424
scalar geant_cost_network.node[4].content_store 	cache_value[4] 	13.01541578982
scalar geant_cost_network.node[4].content_store 	average_price_of_cache[4] 	9.2173913043478
scalar geant_cost_network.node[4].content_store 	correction_factor[4] 	0.0027225701061802
scalar geant_cost_network.node[4].content_store 	kappa[4] 	1
scalar geant_cost_network.node[5].core_layer 	interests[5] 	977342
scalar geant_cost_network.node[5].core_layer 	data[5] 	912080
scalar geant_cost_network.node[5].content_store 	p_hit[5] 	0.065832635863393
scalar geant_cost_network.node[5].content_store 	hits[5] 	64341
scalar geant_cost_network.node[5].content_store 	misses[5] 	913001
scalar geant_cost_network.node[5].content_store 	decision_yes[5] 	2968
scalar geant_cost_network.node[5].content_store 	decision_no[5] 	909112
scalar geant_cost_network.node[5].content_store 	decision_ratio[5] 	0.0032541005174985
scalar geant_cost_network.node[5].content_store 	cache_value[5] 	1.9480622885529
scalar geant_cost_network.node[5].content_store 	average_price_of_cache[5] 	3.3478260869565
scalar geant_cost_network.node[5].content_store 	correction_factor[5] 	0.0027225701061802
scalar geant_cost_network.node[5].content_store 	kappa[5] 	1
scalar geant_cost_network.node[6].core_layer 	interests[6] 	1211212
scalar geant_cost_network.node[6].core_layer 	repo_load[6] 	1003590
scalar geant_cost_network.node[6].core_layer 	data[6] 	125815
scalar geant_cost_network.node[6].content_store 	p_hit[6] 	0.067439886658983
scalar geant_cost_network.node[6].content_store 	hits[6] 	81684
scalar geant_cost_network.node[6].content_store 	misses[6] 	1129528
scalar geant_cost_network.node[6].content_store 	decision_yes[6] 	3789
scalar geant_cost_network.node[6].content_store 	decision_no[6] 	1125616
scalar geant_cost_network.node[6].content_store 	decision_ratio[6] 	0.0033548638442366
scalar geant_cost_network.node[6].content_store 	cache_value[6] 	1.4529644940059
scalar geant_cost_network.node[6].content_store 	average_price_of_cache[6] 	2.1739130434783
scalar geant_cost_network.node[6].content_store 	correction_factor[6] 	0.0027225701061802
scalar geant_cost_network.node[6].content_store 	kappa[6] 	1
scalar geant_cost_network.node[7].core_layer 	interests[7] 	800170
scalar geant_cost_network.node[7].core_layer 	data[7] 	769601
scalar geant_cost_network.node[7].content_store 	p_hit[7] 	0.037577014884337
scalar geant_cost_network.node[7].content_store 	hits[7] 	30068
scalar geant_cost_network.node[7].content_store 	misses[7] 	770102
scalar geant_cost_network.node[7].content_store 	decision_yes[7] 	8301
scalar geant_cost_network.node[7].content_store 	decision_no[7] 	761300
scalar geant_cost_network.node[7].content_store 	decision_ratio[7] 	0.010786108645909
scalar geant_cost_network.node[7].content_store 	cache_value[7] 	7.9641956659818
scalar geant_cost_network.node[7].content_store 	average_price_of_cache[7] 	9.0217391304348
scalar geant_cost_network.node[7].content_store 	correction_factor[7] 	0.0027225701061802
scalar geant_cost_network.node[7].content_store 	kappa[7] 	1
scalar geant_cost_network.node[8].core_layer 	interests[8] 	586361
scalar geant_cost_network.node[8].core_layer 	data[8] 	571445
scalar geant_cost_network.node[8].content_store 	p_hit[8] 	0.025228485523423
scalar geant_cost_network.node[8].content_store 	hits[8] 	14793
scalar geant_cost_network.node[8].content_store 	misses[8] 	571568
scalar geant_cost_network.node[8].content_store 	decision_yes[8] 	9378
scalar geant_cost_network.node[8].content_store 	decision_no[8] 	562067
scalar geant_cost_network.node[8].content_store 	decision_ratio[8] 	0.01641102818294
scalar geant_cost_network.node[8].content_store 	cache_value[8] 	4.1846459471157
scalar geant_cost_network.node[8].content_store 	average_price_of_cache[8] 	9.4130434782609
scalar geant_cost_network.node[8].content_store 	correction_factor[8] 	0.0027225701061802
scalar geant_cost_network.node[8].content_store 	kappa[8] 	1
scalar geant_cost_network.node[9].core_layer 	interests[9] 	1225018
scalar geant_cost_network.node[9].core_layer 	repo_load[9] 	914370
scalar geant_cost_network.node[9].core_layer 	data[9] 	236005
scalar geant_cost_network.node[9].content_store 	p_hit[9] 	0.060716658857258
scalar geant_cost_network.node[9].content_store 	hits[9] 	74379
scalar geant_cost_network.node[9].content_store 	misses[9] 	1150639
scalar geant_cost_network.node[9].content_store 	decision_yes[9] 	25198
scalar geant_cost_network.node[9].content_store 	decision_no[9] 	1125177
scalar geant_cost_network.node[9].content_store 	decision_ratio[9] 	0.021904161686407
scalar geant_cost_network.node[9].content_store 	cache_value[9] 	15.551456912119
scalar geant_cost_network.node[9].content_store 	average_price_of_cache[9] 	10
scalar geant_cost_network.node[9].content_store 	correction_factor[9] 	0.0027225701061802
scalar geant_cost_network.node[9].content_store 	kappa[9] 	1
scalar geant_cost_network.node[10].core_layer 	interests[10] 	234279
scalar geant_cost_network.node[10].core_layer 	data[10] 	224314
scalar geant_cost_network.node[10].content_store 	p_hit[10] 	0.041920103807853
scalar geant_cost_network.node[10].content_store 	hits[10] 	9821
scalar geant_cost_network.node[10].content_store 	misses[10] 	224458
scalar geant_cost_network.node[10].content_store 	decision_yes[10] 	2587
scalar geant_cost_network.node[10].content_store 	decision_no[10] 	221727
scalar geant_cost_network.node[10].content_store 	decision_ratio[10] 	0.011532940431716
scalar geant_cost_network.node[10].content_store 	cache_value[10] 	14.654512858579
scalar geant_cost_network.node[10].content_store 	average_price_of_cache[10] 	9.0217391304348
scalar geant_cost_network.node[10].content_store 	correction_factor[10] 	0.0027225701061802
scalar geant_cost_network.node[10].content_store 	kappa[10] 	1
scalar geant_cost_network.node[11].core_layer 	interests[11] 	200579
scalar geant_cost_network.node[11].core_layer 	data[11] 	178498
scalar geant_cost_network.node[11].content_store 	p_hit[11] 	0.1094032775116
scalar geant_cost_network.node[11].content_store 	hits[11] 	21944
scalar geant_cost_network.node[11].content_store 	misses[11] 	178635
scalar geant_cost_network.node[11].content_store 	decision_yes[11] 	1295
scalar geant_cost_network.node[11].content_store 	decision_no[11] 	177203
scalar geant_cost_network.node[11].content_store 	decision_ratio[11] 	0.007254983249112
scalar geant_cost_network.node[11].content_store 	cache_value[11] 	2.9217267688117
scalar geant_cost_network.node[11].content_store 	average_price_of_cache[11] 	8.6304347826087
scalar geant_cost_network.node[11].content_store 	correction_factor[11] 	0.0027225701061802
scalar geant_cost_network.node[11].content_store 	kappa[11] 	1
scalar geant_cost_network.node[12].core_layer 	interests[12] 	917312
scalar geant_cost_network.node[12].core_layer 	data[12] 	890437
scalar geant_cost_network.node[12].content_store 	p_hit[12] 	0.027571862136329
scalar geant_cost_network.node[12].content_store 	hits[12] 	25292
scalar geant_cost_network.node[12].content_store 	misses[12] 	892020
scalar geant_cost_network.node[12].content_store 	decision_yes[12] 	12185
scalar geant_cost_network.node[12].content_store 	decision_no[12] 	878251
scalar geant_cost_network.node[12].content_store 	decision_ratio[12] 	0.013684307462861
scalar geant_cost_network.node[12].content_store 	cache_value[12] 	5.510892508688
scalar geant_cost_network.node[12].content_store 	average_price_of_cache[12] 	9.804347826087
scalar geant_cost_network.node[12].content_store 	correction_factor[12] 	0.0027225701061802
scalar geant_cost_network.node[12].content_store 	kappa[12] 	1
scalar geant_cost_network.node[13].core_layer 	interests[13] 	320346
scalar geant_cost_network.node[13].core_layer 	data[13] 	269526
scalar geant_cost_network.node[13].content_store 	p_hit[13] 	0.15544754733944
scalar geant_cost_network.node[13].content_store 	hits[13] 	49797
scalar geant_cost_network.node[13].content_store 	misses[13] 	270549
scalar geant_cost_network.node[13].content_store 	decision_yes[13] 	3371
scalar geant_cost_network.node[13].content_store 	decision_no[13] 	266153
scalar geant_cost_network.node[13].content_store 	decision_ratio[13] 	0.012507234977219
scalar geant_cost_network.node[13].content_store 	cache_value[13] 	9.1032972236346
scalar geant_cost_network.node[13].content_store 	average_price_of_cache[13] 	9.6086956521739
scalar geant_cost_network.node[13].content_store 	correction_factor[13] 	0.0027225701061802
scalar geant_cost_network.node[13].content_store 	kappa[13] 	1
scalar geant_cost_network.node[14].core_layer 	interests[14] 	862380
scalar geant_cost_network.node[14].core_layer 	data[14] 	817267
scalar geant_cost_network.node[14].content_store 	p_hit[14] 	0.048747651847214
scalar geant_cost_network.node[14].content_store 	hits[14] 	42039
scalar geant_cost_network.node[14].content_store 	misses[14] 	820341
scalar geant_cost_network.node[14].content_store 	decision_yes[14] 	3235
scalar geant_cost_network.node[14].content_store 	decision_no[14] 	814030
scalar geant_cost_network.node[14].content_store 	decision_ratio[14] 	0.0039583244112987
scalar geant_cost_network.node[14].content_store 	cache_value[14] 	2.8026446138027
scalar geant_cost_network.node[14].content_store 	average_price_of_cache[14] 	5.8913043478261
scalar geant_cost_network.node[14].content_store 	correction_factor[14] 	0.0027225701061802
scalar geant_cost_network.node[14].content_store 	kappa[14] 	1
scalar geant_cost_network.node[15].core_layer 	interests[15] 	273154
scalar geant_cost_network.node[15].core_layer 	data[15] 	252372
scalar geant_cost_network.node[15].content_store 	p_hit[15] 	0.074840566127532
scalar geant_cost_network.node[15].content_store 	hits[15] 	20443
scalar geant_cost_network.node[15].content_store 	misses[15] 	252711
scalar geant_cost_network.node[15].content_store 	decision_yes[15] 	2208
scalar geant_cost_network.node[15].content_store 	decision_no[15] 	250164
scalar geant_cost_network.node[15].content_store 	decision_ratio[15] 	0.0087489895868004
scalar geant_cost_network.node[15].content_store 	cache_value[15] 	3.691746560922
scalar geant_cost_network.node[15].content_store 	average_price_of_cache[15] 	9.2173913043478
scalar geant_cost_network.node[15].content_store 	correction_factor[15] 	0.0027225701061802
scalar geant_cost_network.node[15].content_store 	kappa[15] 	1
scalar geant_cost_network.node[16].core_layer 	interests[16] 	192248
scalar geant_cost_network.node[16].core_layer 	data[16] 	178859
scalar geant_cost_network.node[16].content_store 	p_hit[16] 	0.067485747576048
scalar geant_cost_network.node[16].content_store 	hits[16] 	12974
scalar geant_cost_network.node[16].content_store 	misses[16] 	179274
scalar geant_cost_network.node[16].content_store 	decision_yes[16] 	1218
scalar geant_cost_network.node[16].content_store 	decision_no[16] 	177641
scalar geant_cost_network.node[16].content_store 	decision_ratio[16] 	0.0068098334442214
scalar geant_cost_network.node[16].content_store 	cache_value[16] 	1.2776078989458
scalar geant_cost_network.node[16].content_store 	average_price_of_cache[16] 	7.2608695652174
scalar geant_cost_network.node[16].content_store 	correction_factor[16] 	0.0027225701061802
scalar geant_cost_network.node[16].content_store 	kappa[16] 	1
scalar geant_cost_network.node[17].core_layer 	interests[17] 	274823
scalar geant_cost_network.node[17].core_layer 	data[17] 	252074
scalar geant_cost_network.node[17].content_store 	p_hit[17] 	0.081503367622069
scalar geant_cost_network.node[17].content_store 	hits[17] 	22399
scalar geant_cost_network.node[17].content_store 	misses[17] 	252424
scalar geant_cost_network.node[17].content_store 	decision_yes[17] 	1236
scalar geant_cost_network.node[17].content_store 	decision_no[17] 	250838
scalar geant_cost_network.node[17].content_store 	decision_ratio[17] 	0.0049033220403532
scalar geant_cost_network.node[17].content_store 	cache_value[17] 	3.3350480197829
scalar geant_cost_network.node[17].content_store 	average_price_of_cache[17] 	8.8260869565217
scalar geant_cost_network.node[17].content_store 	correction_factor[17] 	0.0027225701061802
scalar geant_cost_network.node[17].content_store 	kappa[17] 	1
scalar geant_cost_network.node[18].core_layer 	interests[18] 	1699059
scalar geant_cost_network.node[18].core_layer 	repo_load[18] 	1315252
scalar geant_cost_network.node[18].core_layer 	data[18] 	360511
scalar geant_cost_network.node[18].content_store 	p_hit[18] 	0.013345033927603
scalar geant_cost_network.node[18].content_store 	hits[18] 	22674
scalar geant_cost_network.node[18].content_store 	misses[18] 	1676385
scalar geant_cost_network.node[18].content_store 	decision_yes[18] 	3555
scalar geant_cost_network.node[18].content_store 	decision_no[18] 	1672208
scalar geant_cost_network.node[18].content_store 	decision_ratio[18] 	0.0021214217046205
scalar geant_cost_network.node[18].content_store 	cache_value[18] 	2.0945750341682
scalar geant_cost_network.node[18].content_store 	average_price_of_cache[18] 	6.8695652173913
scalar geant_cost_network.node[18].content_store 	correction_factor[18] 	0.0027225701061802
scalar geant_cost_network.node[18].content_store 	kappa[18] 	1
scalar geant_cost_network.node[19].core_layer 	interests[19] 	196164
scalar geant_cost_network.node[19].core_layer 	data[19] 	179627
scalar geant_cost_network.node[19].content_store 	p_hit[19] 	0.08355253767256
scalar geant_cost_network.node[19].content_store 	hits[19] 	16390
scalar geant_cost_network.node[19].content_store 	misses[19] 	179774
scalar geant_cost_network.node[19].content_store 	decision_yes[19] 	1179
scalar geant_cost_network.node[19].content_store 	decision_no[19] 	178448
scalar geant_cost_network.node[19].content_store 	decision_ratio[19] 	0.0065636012403481
scalar geant_cost_network.node[19].content_store 	cache_value[19] 	1.8849847040378
scalar geant_cost_network.node[19].content_store 	average_price_of_cache[19] 	8.6304347826087
scalar geant_cost_network.node[19].content_store 	correction_factor[19] 	0.0027225701061802
scalar geant_cost_network.node[19].content_store 	kappa[19] 	1
scalar geant_cost_network.node[20].core_layer 	interests[20] 	201114
scalar geant_cost_network.node[20].core_layer 	data[20] 	185982
scalar geant_cost_network.node[20].content_store 	p_hit[20] 	0.074728760802331
scalar geant_cost_network.node[20].content_store 	hits[20] 	15029
scalar geant_cost_network.node[20].content_store 	misses[20] 	186085
scalar geant_cost_network.node[20].content_store 	decision_yes[20] 	1259
scalar geant_cost_network.node[20].content_store 	decision_no[20] 	184723
scalar geant_cost_network.node[20].content_store 	decision_ratio[20] 	0.0067694723145251
scalar geant_cost_network.node[20].content_store 	cache_value[20] 	1.8873752802463
scalar geant_cost_network.node[20].content_store 	average_price_of_cache[20] 	8.2391304347826
scalar geant_cost_network.node[20].content_store 	correction_factor[20] 	0.0027225701061802
scalar geant_cost_network.node[20].content_store 	kappa[20] 	1
scalar geant_cost_network.node[21].core_layer 	interests[21] 	304313
scalar geant_cost_network.node[21].core_layer 	data[21] 	254853
scalar geant_cost_network.node[21].content_store 	p_hit[21] 	0.16139303940351
scalar geant_cost_network.node[21].content_store 	hits[21] 	49114
scalar geant_cost_network.node[21].content_store 	misses[21] 	255199
scalar geant_cost_network.node[21].content_store 	decision_yes[21] 	1148
scalar geant_cost_network.node[21].content_store 	decision_no[21] 	253705
scalar geant_cost_network.node[21].content_store 	decision_ratio[21] 	0.0045045575292423
scalar geant_cost_network.node[21].content_store 	cache_value[21] 	12.332568724069
scalar geant_cost_network.node[21].content_store 	average_price_of_cache[21] 	7.8478260869565
scalar geant_cost_network.node[21].content_store 	correction_factor[21] 	0.0027225701061802
scalar geant_cost_network.node[21].content_store 	kappa[21] 	1
scalar geant_cost_network.client[0] 	hdistance[0] 	4.1729941117157
scalar geant_cost_network.client[0] 	downloads[0] 	179509
scalar geant_cost_network.client[0] 	avg_time[0] 	0.057226630332
scalar geant_cost_network.client[0] 	interests_sent[0] 	180518
scalar geant_cost_network.client[1] 	hdistance[1] 	3.3018482090266
scalar geant_cost_network.client[1] 	downloads[1] 	179958
scalar geant_cost_network.client[1] 	avg_time[1] 	0.015194731842
scalar geant_cost_network.client[1] 	interests_sent[1] 	180499
scalar geant_cost_network.client[2] 	hdistance[2] 	3.6908722109534
scalar geant_cost_network.client[2] 	downloads[2] 	179945
scalar geant_cost_network.client[2] 	avg_time[2] 	0.019562378818
scalar geant_cost_network.client[2] 	interests_sent[2] 	180276
scalar geant_cost_network.client[3] 	hdistance[3] 	2.7321594787465
scalar geant_cost_network.client[3] 	downloads[3] 	180488
scalar geant_cost_network.client[3] 	avg_time[3] 	0.008286823532
scalar geant_cost_network.client[3] 	interests_sent[3] 	180583
scalar geant_cost_network.client[4] 	hdistance[4] 	2.6129141649989
scalar geant_cost_network.client[4] 	downloads[4] 	179880
scalar geant_cost_network.client[4] 	avg_time[4] 	0.005930396442
scalar geant_cost_network.client[4] 	interests_sent[4] 	179941
scalar geant_cost_network.client[5] 	hdistance[5] 	2.7253581909201
scalar geant_cost_network.client[5] 	downloads[5] 	179583
scalar geant_cost_network.client[5] 	avg_time[5] 	0.010203989867
scalar geant_cost_network.client[5] 	interests_sent[5] 	179779
scalar geant_cost_network.client[6] 	hdistance[6] 	2.828073794354
scalar geant_cost_network.client[6] 	downloads[6] 	180339
scalar geant_cost_network.client[6] 	avg_time[6] 	0.006885608351
scalar geant_cost_network.client[6] 	interests_sent[6] 	180459
scalar geant_cost_network.client[7] 	hdistance[7] 	2.4907572518746
scalar geant_cost_network.client[7] 	downloads[7] 	180574
scalar geant_cost_network.client[7] 	avg_time[7] 	0.00515936759
scalar geant_cost_network.client[7] 	interests_sent[7] 	180664
scalar geant_cost_network.client[8] 	hdistance[8] 	2.8708228789662
scalar geant_cost_network.client[8] 	downloads[8] 	180148
scalar geant_cost_network.client[8] 	avg_time[8] 	0.005380702884
scalar geant_cost_network.client[8] 	interests_sent[8] 	180229
scalar geant_cost_network.client[9] 	hdistance[9] 	3.1741524532646
scalar geant_cost_network.client[9] 	downloads[9] 	180698
scalar geant_cost_network.client[9] 	avg_time[9] 	0.006368985316
scalar geant_cost_network.client[9] 	interests_sent[9] 	180804
scalar geant_cost_network.client[10] 	hdistance[10] 	4.1124193359473
scalar geant_cost_network.client[10] 	downloads[10] 	179293
scalar geant_cost_network.client[10] 	avg_time[10] 	0.008315410948
scalar geant_cost_network.client[10] 	interests_sent[10] 	179404
scalar geant_cost_network.client[11] 	hdistance[11] 	4.0547872901932
scalar geant_cost_network.client[11] 	downloads[11] 	179987
scalar geant_cost_network.client[11] 	avg_time[11] 	0.010971632673
scalar geant_cost_network.client[11] 	interests_sent[11] 	180124
scalar geant_cost_network.client[12] 	hdistance[12] 	3.0953027076022
scalar geant_cost_network.client[12] 	downloads[12] 	179827
scalar geant_cost_network.client[12] 	avg_time[12] 	0.009899974124
scalar geant_cost_network.client[12] 	interests_sent[12] 	179960
scalar geant_cost_network.client[13] 	hdistance[13] 	3.0481389189975
scalar geant_cost_network.client[13] 	downloads[13] 	178982
scalar geant_cost_network.client[13] 	avg_time[13] 	0.044683917065
scalar geant_cost_network.client[13] 	interests_sent[13] 	179722
scalar geant_cost_network.client[14] 	hdistance[14] 	2.5981079867138
scalar geant_cost_network.client[14] 	downloads[14] 	180337
scalar geant_cost_network.client[14] 	avg_time[14] 	0.027115988393
scalar geant_cost_network.client[14] 	interests_sent[14] 	180547
scalar geant_cost_network.client[15] 	hdistance[15] 	2.9999277520897
scalar geant_cost_network.client[15] 	downloads[15] 	179936
scalar geant_cost_network.client[15] 	avg_time[15] 	0.012481838682
scalar geant_cost_network.client[15] 	interests_sent[15] 	180106
scalar geant_cost_network.client[16] 	hdistance[16] 	3.5624346161551
scalar geant_cost_network.client[16] 	downloads[16] 	179708
scalar geant_cost_network.client[16] 	avg_time[16] 	0.037243248546
scalar geant_cost_network.client[16] 	interests_sent[16] 	180123
scalar geant_cost_network.client[17] 	hdistance[17] 	3.2574181953741
scalar geant_cost_network.client[17] 	downloads[17] 	179727
scalar geant_cost_network.client[17] 	avg_time[17] 	0.015605636375
scalar geant_cost_network.client[17] 	interests_sent[17] 	179994
scalar geant_cost_network.client[18] 	hdistance[18] 	2.8095979622822
scalar geant_cost_network.client[18] 	downloads[18] 	179809
scalar geant_cost_network.client[18] 	avg_time[18] 	0.009237771513
scalar geant_cost_network.client[18] 	interests_sent[18] 	179933
scalar geant_cost_network.client[19] 	hdistance[19] 	3.7878494272411
scalar geant_cost_network.client[19] 	downloads[19] 	180617
scalar geant_cost_network.client[19] 	avg_time[19] 	0.010964512522
scalar geant_cost_network.client[19] 	interests_sent[19] 	180764
scalar geant_cost_network.client[20] 	hdistance[20] 	3.7526943056832
scalar geant_cost_network.client[20] 	downloads[20] 	180566
scalar geant_cost_network.client[20] 	avg_time[20] 	0.011420393597
scalar geant_cost_network.client[20] 	interests_sent[20] 	180660
scalar geant_cost_network.client[21] 	hdistance[21] 	3.4660037863016
scalar geant_cost_network.client[21] 	downloads[21] 	180123
scalar geant_cost_network.client[21] 	avg_time[21] 	0.013088502355
scalar geant_cost_network.client[21] 	interests_sent[21] 	180263
