version 2
run General-0-20150311-18:57:52-15506
attr D costaware0.01
attr F nrr
attr R lru
attr a 0.8
attr configname General
attr csize 1e3
attr ctlg 1e5
attr datetime 20150311-18:57:52
attr experiment General
attr inifile omnetpp.ini
attr iterationvars "$rep=11, $net=geant_cost, $lambda=100, $a=0.8, $ctlg=1e5, $F=nrr, $ttl=10, $D=costaware0.01, $R=lru, $csize=1e3, $window=60, $variance=0.05, $mytime=1800, $kappa=1, $priceratiovalue=10, $pricebits=0"
attr iterationvars2 "$rep=11, $net=geant_cost, $lambda=100, $a=0.8, $ctlg=1e5, $F=nrr, $ttl=10, $D=costaware0.01, $R=lru, $csize=1e3, $window=60, $variance=0.05, $mytime=1800, $kappa=1, $priceratiovalue=10, $pricebits=0, $repetition=0"
attr kappa 1
attr lambda 100
attr measurement "$rep=11, $net=geant_cost, $lambda=100, $a=0.8, $ctlg=1e5, $F=nrr, $ttl=10, $D=costaware0.01, $R=lru, $csize=1e3, $window=60, $variance=0.05, $mytime=1800, $kappa=1, $priceratiovalue=10, $pricebits=0"
attr mytime 1800
attr net geant_cost
attr network networks.${net=geant_cost}_network
attr pricebits 0
attr priceratiovalue 10
attr processid 15506
attr rep 11
attr repetition 0
attr replication #0
attr resultdir results
attr runnumber 0
attr seedset 11
attr ttl 10
attr variance 0.05
attr window 60

scalar . 	a 	0.8
scalar . 	csize 	1e3
scalar . 	ctlg 	1e5
scalar . 	kappa 	1
scalar . 	lambda 	100
scalar . 	mytime 	1800
scalar . 	pricebits 	0
scalar . 	priceratiovalue 	10
scalar . 	rep 	11
scalar . 	ttl 	10
scalar . 	variance 	0.05
scalar . 	window 	60
scalar geant_cost_network.content_distribution 	repo-0 	18
scalar geant_cost_network.content_distribution 	repo-1 	6
scalar geant_cost_network.content_distribution 	repo-2 	9
scalar geant_cost_network.content_distribution 	client-0 	1
scalar geant_cost_network.content_distribution 	client-1 	10
scalar geant_cost_network.content_distribution 	client-2 	9
scalar geant_cost_network.content_distribution 	client-3 	21
scalar geant_cost_network.content_distribution 	client-4 	4
scalar geant_cost_network.content_distribution 	client-5 	3
scalar geant_cost_network.content_distribution 	client-6 	5
scalar geant_cost_network.content_distribution 	client-7 	11
scalar geant_cost_network.content_distribution 	client-8 	14
scalar geant_cost_network.content_distribution 	client-9 	18
scalar geant_cost_network.content_distribution 	client-10 	6
scalar geant_cost_network.content_distribution 	client-11 	20
scalar geant_cost_network.content_distribution 	client-12 	0
scalar geant_cost_network.content_distribution 	client-13 	19
scalar geant_cost_network.content_distribution 	client-14 	8
scalar geant_cost_network.content_distribution 	client-15 	15
scalar geant_cost_network.content_distribution 	client-16 	13
scalar geant_cost_network.content_distribution 	client-17 	2
scalar geant_cost_network.content_distribution 	client-18 	16
scalar geant_cost_network.content_distribution 	client-19 	12
scalar geant_cost_network.content_distribution 	client-20 	17
scalar geant_cost_network.content_distribution 	client-21 	7
scalar geant_cost_network.content_distribution 	repo-0_card 	33096
scalar geant_cost_network.content_distribution 	repo-0_price 	0
scalar geant_cost_network.content_distribution 	repo-1_card 	33556
scalar geant_cost_network.content_distribution 	repo-1_price 	1
scalar geant_cost_network.content_distribution 	repo-2_card 	33348
scalar geant_cost_network.content_distribution 	repo-2_price 	10
scalar geant_cost_network.statistics 	repo_popularity[0] 	0.33047749379207
scalar geant_cost_network.statistics 	repo_popularity[1] 	0.339469339334
scalar geant_cost_network.statistics 	repo_popularity[2] 	0.33005316687392
scalar geant_cost_network.statistics 	stabilization_time 	138.4
scalar geant_cost_network.statistics 	p_hit 	0.052485641920782
scalar geant_cost_network.statistics 	interests 	615261.77272727
scalar geant_cost_network.statistics 	data 	435237
scalar geant_cost_network.statistics 	hdistance 	3.2472282045978
scalar geant_cost_network.statistics 	avg_time 	0.01592515033
scalar geant_cost_network.statistics 	downloads 	3954280
scalar geant_cost_network.statistics 	total_cost 	10172132
scalar geant_cost_network.statistics 	total_replicas 	100000
scalar geant_cost_network.statistics 	inner_hit 	0.18535510889467
scalar geant_cost_network.statistics 	interests_sent 	3960555
scalar geant_cost_network.node[0].core_layer 	interests[0] 	203827
scalar geant_cost_network.node[0].core_layer 	data[0] 	184579
scalar geant_cost_network.node[0].core_layer 	repo_int[0] 	3221334
scalar geant_cost_network.node[0].content_store 	p_hit[0] 	0.089129506885741
scalar geant_cost_network.node[0].content_store 	hits[0] 	18167
scalar geant_cost_network.node[0].content_store 	misses[0] 	185660
scalar geant_cost_network.node[0].content_store 	decision_yes[0] 	1185
scalar geant_cost_network.node[0].content_store 	decision_no[0] 	183394
scalar geant_cost_network.node[0].content_store 	decision_ratio[0] 	0.006420015278011
scalar geant_cost_network.node[0].content_store 	cache_value[0] 	2.7583666670413
scalar geant_cost_network.node[0].content_store 	average_price_of_cache[0] 	8.2391304347826
scalar geant_cost_network.node[0].content_store 	correction_factor[0] 	0.0027225701061802
scalar geant_cost_network.node[0].content_store 	kappa[0] 	1
scalar geant_cost_network.node[1].core_layer 	interests[1] 	383401
scalar geant_cost_network.node[1].core_layer 	data[1] 	363958
scalar geant_cost_network.node[1].content_store 	p_hit[1] 	0.047336861406204
scalar geant_cost_network.node[1].content_store 	hits[1] 	18149
scalar geant_cost_network.node[1].content_store 	misses[1] 	365252
scalar geant_cost_network.node[1].content_store 	decision_yes[1] 	2412
scalar geant_cost_network.node[1].content_store 	decision_no[1] 	361545
scalar geant_cost_network.node[1].content_store 	decision_ratio[1] 	0.0066271565047519
scalar geant_cost_network.node[1].content_store 	cache_value[1] 	1.7010601581423
scalar geant_cost_network.node[1].content_store 	average_price_of_cache[1] 	7.8478260869565
scalar geant_cost_network.node[1].content_store 	correction_factor[1] 	0.0027225701061802
scalar geant_cost_network.node[1].content_store 	kappa[1] 	1
scalar geant_cost_network.node[2].core_layer 	interests[2] 	192400
scalar geant_cost_network.node[2].core_layer 	data[2] 	179188
scalar geant_cost_network.node[2].content_store 	p_hit[2] 	0.066647609147609
scalar geant_cost_network.node[2].content_store 	hits[2] 	12823
scalar geant_cost_network.node[2].content_store 	misses[2] 	179577
scalar geant_cost_network.node[2].content_store 	decision_yes[2] 	1238
scalar geant_cost_network.node[2].content_store 	decision_no[2] 	177950
scalar geant_cost_network.node[2].content_store 	decision_ratio[2] 	0.0069089447954104
scalar geant_cost_network.node[2].content_store 	cache_value[2] 	1.5579904955989
scalar geant_cost_network.node[2].content_store 	average_price_of_cache[2] 	8.4347826086957
scalar geant_cost_network.node[2].content_store 	correction_factor[2] 	0.0027225701061802
scalar geant_cost_network.node[2].content_store 	kappa[2] 	1
scalar geant_cost_network.node[3].core_layer 	interests[3] 	1077796
scalar geant_cost_network.node[3].core_layer 	data[3] 	1043977
scalar geant_cost_network.node[3].content_store 	p_hit[3] 	0.02750798852473
scalar geant_cost_network.node[3].content_store 	hits[3] 	29648
scalar geant_cost_network.node[3].content_store 	misses[3] 	1048148
scalar geant_cost_network.node[3].content_store 	decision_yes[3] 	6169
scalar geant_cost_network.node[3].content_store 	decision_no[3] 	1037806
scalar geant_cost_network.node[3].content_store 	decision_ratio[3] 	0.00590914533394
scalar geant_cost_network.node[3].content_store 	cache_value[3] 	1.8903007295451
scalar geant_cost_network.node[3].content_store 	average_price_of_cache[3] 	7.2608695652174
scalar geant_cost_network.node[3].content_store 	correction_factor[3] 	0.0027225701061802
scalar geant_cost_network.node[3].content_store 	kappa[3] 	1
scalar geant_cost_network.node[4].core_layer 	interests[4] 	1169458
scalar geant_cost_network.node[4].core_layer 	data[4] 	1131920
scalar geant_cost_network.node[4].content_store 	p_hit[4] 	0.029723170904812
scalar geant_cost_network.node[4].content_store 	hits[4] 	34760
scalar geant_cost_network.node[4].content_store 	misses[4] 	1134698
scalar geant_cost_network.node[4].content_store 	decision_yes[4] 	5552
scalar geant_cost_network.node[4].content_store 	decision_no[4] 	1126366
scalar geant_cost_network.node[4].content_store 	decision_ratio[4] 	0.0049049489450649
scalar geant_cost_network.node[4].content_store 	cache_value[4] 	4.2332261151529
scalar geant_cost_network.node[4].content_store 	average_price_of_cache[4] 	9.2173913043478
scalar geant_cost_network.node[4].content_store 	correction_factor[4] 	0.0027225701061802
scalar geant_cost_network.node[4].content_store 	kappa[4] 	1
scalar geant_cost_network.node[5].core_layer 	interests[5] 	1003242
scalar geant_cost_network.node[5].core_layer 	data[5] 	936273
scalar geant_cost_network.node[5].content_store 	p_hit[5] 	0.062068773037811
scalar geant_cost_network.node[5].content_store 	hits[5] 	62270
scalar geant_cost_network.node[5].content_store 	misses[5] 	940972
scalar geant_cost_network.node[5].content_store 	decision_yes[5] 	2899
scalar geant_cost_network.node[5].content_store 	decision_no[5] 	933374
scalar geant_cost_network.node[5].content_store 	decision_ratio[5] 	0.0030963191291429
scalar geant_cost_network.node[5].content_store 	cache_value[5] 	1.3694534934349
scalar geant_cost_network.node[5].content_store 	average_price_of_cache[5] 	4.1304347826087
scalar geant_cost_network.node[5].content_store 	correction_factor[5] 	0.0027225701061802
scalar geant_cost_network.node[5].content_store 	kappa[5] 	1
scalar geant_cost_network.node[6].core_layer 	interests[6] 	1249293
scalar geant_cost_network.node[6].core_layer 	repo_load[6] 	999662
scalar geant_cost_network.node[6].core_layer 	data[6] 	120849
scalar geant_cost_network.node[6].content_store 	p_hit[6] 	0.10301826713189
scalar geant_cost_network.node[6].content_store 	hits[6] 	128700
scalar geant_cost_network.node[6].content_store 	misses[6] 	1120593
scalar geant_cost_network.node[6].content_store 	decision_yes[6] 	3877
scalar geant_cost_network.node[6].content_store 	decision_no[6] 	1116634
scalar geant_cost_network.node[6].content_store 	decision_ratio[6] 	0.0034600285048518
scalar geant_cost_network.node[6].content_store 	cache_value[6] 	2.6408472117487
scalar geant_cost_network.node[6].content_store 	average_price_of_cache[6] 	2.3695652173913
scalar geant_cost_network.node[6].content_store 	correction_factor[6] 	0.0027225701061802
scalar geant_cost_network.node[6].content_store 	kappa[6] 	1
scalar geant_cost_network.node[7].core_layer 	interests[7] 	809923
scalar geant_cost_network.node[7].core_layer 	data[7] 	771725
scalar geant_cost_network.node[7].content_store 	p_hit[7] 	0.046231555345385
scalar geant_cost_network.node[7].content_store 	hits[7] 	37444
scalar geant_cost_network.node[7].content_store 	misses[7] 	772479
scalar geant_cost_network.node[7].content_store 	decision_yes[7] 	8234
scalar geant_cost_network.node[7].content_store 	decision_no[7] 	763490
scalar geant_cost_network.node[7].content_store 	decision_ratio[7] 	0.01066961763532
scalar geant_cost_network.node[7].content_store 	cache_value[7] 	4.5563850081224
scalar geant_cost_network.node[7].content_store 	average_price_of_cache[7] 	8.0434782608696
scalar geant_cost_network.node[7].content_store 	correction_factor[7] 	0.0027225701061802
scalar geant_cost_network.node[7].content_store 	kappa[7] 	1
scalar geant_cost_network.node[8].core_layer 	interests[8] 	592887
scalar geant_cost_network.node[8].core_layer 	data[8] 	577369
scalar geant_cost_network.node[8].content_store 	p_hit[8] 	0.025596783198147
scalar geant_cost_network.node[8].content_store 	hits[8] 	15176
scalar geant_cost_network.node[8].content_store 	misses[8] 	577711
scalar geant_cost_network.node[8].content_store 	decision_yes[8] 	9345
scalar geant_cost_network.node[8].content_store 	decision_no[8] 	568024
scalar geant_cost_network.node[8].content_store 	decision_ratio[8] 	0.016185489695498
scalar geant_cost_network.node[8].content_store 	cache_value[8] 	5.6496549053115
scalar geant_cost_network.node[8].content_store 	average_price_of_cache[8] 	9.2173913043478
scalar geant_cost_network.node[8].content_store 	correction_factor[8] 	0.0027225701061802
scalar geant_cost_network.node[8].content_store 	kappa[8] 	1
scalar geant_cost_network.node[9].core_layer 	interests[9] 	1196287
scalar geant_cost_network.node[9].core_layer 	repo_load[9] 	917247
scalar geant_cost_network.node[9].core_layer 	data[9] 	242011
scalar geant_cost_network.node[9].content_store 	p_hit[9] 	0.030651507539579
scalar geant_cost_network.node[9].content_store 	hits[9] 	36668
scalar geant_cost_network.node[9].content_store 	misses[9] 	1159619
scalar geant_cost_network.node[9].content_store 	decision_yes[9] 	25294
scalar geant_cost_network.node[9].content_store 	decision_no[9] 	1133964
scalar geant_cost_network.node[9].content_store 	decision_ratio[9] 	0.0218191291326
scalar geant_cost_network.node[9].content_store 	cache_value[9] 	8.6474394865434
scalar geant_cost_network.node[9].content_store 	average_price_of_cache[9] 	10
scalar geant_cost_network.node[9].content_store 	correction_factor[9] 	0.0027225701061802
scalar geant_cost_network.node[9].content_store 	kappa[9] 	1
scalar geant_cost_network.node[10].core_layer 	interests[10] 	231109
scalar geant_cost_network.node[10].core_layer 	data[10] 	218958
scalar geant_cost_network.node[10].content_store 	p_hit[10] 	0.051880281598726
scalar geant_cost_network.node[10].content_store 	hits[10] 	11990
scalar geant_cost_network.node[10].content_store 	misses[10] 	219119
scalar geant_cost_network.node[10].content_store 	decision_yes[10] 	2696
scalar geant_cost_network.node[10].content_store 	decision_no[10] 	216262
scalar geant_cost_network.node[10].content_store 	decision_ratio[10] 	0.012312863654217
scalar geant_cost_network.node[10].content_store 	cache_value[10] 	17.669864003165
scalar geant_cost_network.node[10].content_store 	average_price_of_cache[10] 	9.804347826087
scalar geant_cost_network.node[10].content_store 	correction_factor[10] 	0.0027225701061802
scalar geant_cost_network.node[10].content_store 	kappa[10] 	1
scalar geant_cost_network.node[11].core_layer 	interests[11] 	206934
scalar geant_cost_network.node[11].core_layer 	data[11] 	178119
scalar geant_cost_network.node[11].content_store 	p_hit[11] 	0.13810200353736
scalar geant_cost_network.node[11].content_store 	hits[11] 	28578
scalar geant_cost_network.node[11].content_store 	misses[11] 	178356
scalar geant_cost_network.node[11].content_store 	decision_yes[11] 	1271
scalar geant_cost_network.node[11].content_store 	decision_no[11] 	176848
scalar geant_cost_network.node[11].content_store 	decision_ratio[11] 	0.0071356789562034
scalar geant_cost_network.node[11].content_store 	cache_value[11] 	4.2702722352233
scalar geant_cost_network.node[11].content_store 	average_price_of_cache[11] 	8.4347826086957
scalar geant_cost_network.node[11].content_store 	correction_factor[11] 	0.0027225701061802
scalar geant_cost_network.node[11].content_store 	kappa[11] 	1
scalar geant_cost_network.node[12].core_layer 	interests[12] 	938265
scalar geant_cost_network.node[12].core_layer 	data[12] 	876167
scalar geant_cost_network.node[12].content_store 	p_hit[12] 	0.06496778628639
scalar geant_cost_network.node[12].content_store 	hits[12] 	60957
scalar geant_cost_network.node[12].content_store 	misses[12] 	877308
scalar geant_cost_network.node[12].content_store 	decision_yes[12] 	12284
scalar geant_cost_network.node[12].content_store 	decision_no[12] 	863881
scalar geant_cost_network.node[12].content_store 	decision_ratio[12] 	0.014020190260967
scalar geant_cost_network.node[12].content_store 	cache_value[12] 	12.3481271465
scalar geant_cost_network.node[12].content_store 	average_price_of_cache[12] 	9.804347826087
scalar geant_cost_network.node[12].content_store 	correction_factor[12] 	0.0027225701061802
scalar geant_cost_network.node[12].content_store 	kappa[12] 	1
scalar geant_cost_network.node[13].core_layer 	interests[13] 	305947
scalar geant_cost_network.node[13].core_layer 	data[13] 	274727
scalar geant_cost_network.node[13].content_store 	p_hit[13] 	0.097618214919578
scalar geant_cost_network.node[13].content_store 	hits[13] 	29866
scalar geant_cost_network.node[13].content_store 	misses[13] 	276081
scalar geant_cost_network.node[13].content_store 	decision_yes[13] 	3389
scalar geant_cost_network.node[13].content_store 	decision_no[13] 	271338
scalar geant_cost_network.node[13].content_store 	decision_ratio[13] 	0.012335882530658
scalar geant_cost_network.node[13].content_store 	cache_value[13] 	5.072746091165
scalar geant_cost_network.node[13].content_store 	average_price_of_cache[13] 	9.2173913043478
scalar geant_cost_network.node[13].content_store 	correction_factor[13] 	0.0027225701061802
scalar geant_cost_network.node[13].content_store 	kappa[13] 	1
scalar geant_cost_network.node[14].core_layer 	interests[14] 	857085
scalar geant_cost_network.node[14].core_layer 	data[14] 	812331
scalar geant_cost_network.node[14].content_store 	p_hit[14] 	0.044420331705723
scalar geant_cost_network.node[14].content_store 	hits[14] 	38072
scalar geant_cost_network.node[14].content_store 	misses[14] 	819013
scalar geant_cost_network.node[14].content_store 	decision_yes[14] 	3145
scalar geant_cost_network.node[14].content_store 	decision_no[14] 	809186
scalar geant_cost_network.node[14].content_store 	decision_ratio[14] 	0.003871574518269
scalar geant_cost_network.node[14].content_store 	cache_value[14] 	1.0336723914882
scalar geant_cost_network.node[14].content_store 	average_price_of_cache[14] 	5.5
scalar geant_cost_network.node[14].content_store 	correction_factor[14] 	0.0027225701061802
scalar geant_cost_network.node[14].content_store 	kappa[14] 	1
scalar geant_cost_network.node[15].core_layer 	interests[15] 	277800
scalar geant_cost_network.node[15].core_layer 	data[15] 	248176
scalar geant_cost_network.node[15].content_store 	p_hit[15] 	0.10540316774658
scalar geant_cost_network.node[15].content_store 	hits[15] 	29281
scalar geant_cost_network.node[15].content_store 	misses[15] 	248519
scalar geant_cost_network.node[15].content_store 	decision_yes[15] 	2251
scalar geant_cost_network.node[15].content_store 	decision_no[15] 	245925
scalar geant_cost_network.node[15].content_store 	decision_ratio[15] 	0.0090701760041261
scalar geant_cost_network.node[15].content_store 	cache_value[15] 	2.9815508966593
scalar geant_cost_network.node[15].content_store 	average_price_of_cache[15] 	7.8478260869565
scalar geant_cost_network.node[15].content_store 	correction_factor[15] 	0.0027225701061802
scalar geant_cost_network.node[15].content_store 	kappa[15] 	1
scalar geant_cost_network.node[16].core_layer 	interests[16] 	189485
scalar geant_cost_network.node[16].core_layer 	data[16] 	178886
scalar geant_cost_network.node[16].content_store 	p_hit[16] 	0.053144048341557
scalar geant_cost_network.node[16].content_store 	hits[16] 	10070
scalar geant_cost_network.node[16].content_store 	misses[16] 	179415
scalar geant_cost_network.node[16].content_store 	decision_yes[16] 	1178
scalar geant_cost_network.node[16].content_store 	decision_no[16] 	177708
scalar geant_cost_network.node[16].content_store 	decision_ratio[16] 	0.0065851995125387
scalar geant_cost_network.node[16].content_store 	cache_value[16] 	1.1194894737752
scalar geant_cost_network.node[16].content_store 	average_price_of_cache[16] 	6.8695652173913
scalar geant_cost_network.node[16].content_store 	correction_factor[16] 	0.0027225701061802
scalar geant_cost_network.node[16].content_store 	kappa[16] 	1
scalar geant_cost_network.node[17].core_layer 	interests[17] 	272149
scalar geant_cost_network.node[17].core_layer 	data[17] 	250129
scalar geant_cost_network.node[17].content_store 	p_hit[17] 	0.079438101922109
scalar geant_cost_network.node[17].content_store 	hits[17] 	21619
scalar geant_cost_network.node[17].content_store 	misses[17] 	250530
scalar geant_cost_network.node[17].content_store 	decision_yes[17] 	1206
scalar geant_cost_network.node[17].content_store 	decision_no[17] 	248923
scalar geant_cost_network.node[17].content_store 	decision_ratio[17] 	0.0048215120997565
scalar geant_cost_network.node[17].content_store 	cache_value[17] 	3.0798924867126
scalar geant_cost_network.node[17].content_store 	average_price_of_cache[17] 	8.4347826086957
scalar geant_cost_network.node[17].content_store 	correction_factor[17] 	0.0027225701061802
scalar geant_cost_network.node[17].content_store 	kappa[17] 	1
scalar geant_cost_network.node[18].core_layer 	interests[18] 	1695221
scalar geant_cost_network.node[18].core_layer 	repo_load[18] 	1304425
scalar geant_cost_network.node[18].core_layer 	data[18] 	365270
scalar geant_cost_network.node[18].content_store 	p_hit[18] 	0.01435388070346
scalar geant_cost_network.node[18].content_store 	hits[18] 	24333
scalar geant_cost_network.node[18].content_store 	misses[18] 	1670888
scalar geant_cost_network.node[18].content_store 	decision_yes[18] 	3632
scalar geant_cost_network.node[18].content_store 	decision_no[18] 	1666060
scalar geant_cost_network.node[18].content_store 	decision_ratio[18] 	0.0021752514835071
scalar geant_cost_network.node[18].content_store 	cache_value[18] 	3.6819303079723
scalar geant_cost_network.node[18].content_store 	average_price_of_cache[18] 	8.4347826086957
scalar geant_cost_network.node[18].content_store 	correction_factor[18] 	0.0027225701061802
scalar geant_cost_network.node[18].content_store 	kappa[18] 	1
scalar geant_cost_network.node[19].core_layer 	interests[19] 	205352
scalar geant_cost_network.node[19].core_layer 	data[19] 	176875
scalar geant_cost_network.node[19].content_store 	p_hit[19] 	0.1377585803888
scalar geant_cost_network.node[19].content_store 	hits[19] 	28289
scalar geant_cost_network.node[19].content_store 	misses[19] 	177063
scalar geant_cost_network.node[19].content_store 	decision_yes[19] 	1198
scalar geant_cost_network.node[19].content_store 	decision_no[19] 	175677
scalar geant_cost_network.node[19].content_store 	decision_ratio[19] 	0.0067731448763251
scalar geant_cost_network.node[19].content_store 	cache_value[19] 	7.7241880710869
scalar geant_cost_network.node[19].content_store 	average_price_of_cache[19] 	9.0217391304348
scalar geant_cost_network.node[19].content_store 	correction_factor[19] 	0.0027225701061802
scalar geant_cost_network.node[19].content_store 	kappa[19] 	1
scalar geant_cost_network.node[20].core_layer 	interests[20] 	200165
scalar geant_cost_network.node[20].core_layer 	data[20] 	185626
scalar geant_cost_network.node[20].content_store 	p_hit[20] 	0.071511003422177
scalar geant_cost_network.node[20].content_store 	hits[20] 	14314
scalar geant_cost_network.node[20].content_store 	misses[20] 	185851
scalar geant_cost_network.node[20].content_store 	decision_yes[20] 	1233
scalar geant_cost_network.node[20].content_store 	decision_no[20] 	184393
scalar geant_cost_network.node[20].content_store 	decision_ratio[20] 	0.0066423884585134
scalar geant_cost_network.node[20].content_store 	cache_value[20] 	2.0076079809396
scalar geant_cost_network.node[20].content_store 	average_price_of_cache[20] 	8.8260869565217
scalar geant_cost_network.node[20].content_store 	correction_factor[20] 	0.0027225701061802
scalar geant_cost_network.node[20].content_store 	kappa[20] 	1
scalar geant_cost_network.node[21].core_layer 	interests[21] 	277733
scalar geant_cost_network.node[21].core_layer 	data[21] 	258101
scalar geant_cost_network.node[21].content_store 	p_hit[21] 	0.069343578184803
scalar geant_cost_network.node[21].content_store 	hits[21] 	19259
scalar geant_cost_network.node[21].content_store 	misses[21] 	258474
scalar geant_cost_network.node[21].content_store 	decision_yes[21] 	1218
scalar geant_cost_network.node[21].content_store 	decision_no[21] 	256883
scalar geant_cost_network.node[21].content_store 	decision_ratio[21] 	0.0047190828396635
scalar geant_cost_network.node[21].content_store 	cache_value[21] 	2.284064118459
scalar geant_cost_network.node[21].content_store 	average_price_of_cache[21] 	8.4347826086957
scalar geant_cost_network.node[21].content_store 	correction_factor[21] 	0.0027225701061802
scalar geant_cost_network.node[21].content_store 	kappa[21] 	1
scalar geant_cost_network.client[0] 	hdistance[0] 	4.2207534476958
scalar geant_cost_network.client[0] 	downloads[0] 	178380
scalar geant_cost_network.client[0] 	avg_time[0] 	0.057295149761
scalar geant_cost_network.client[0] 	interests_sent[0] 	179438
scalar geant_cost_network.client[1] 	hdistance[1] 	3.2937284331133
scalar geant_cost_network.client[1] 	downloads[1] 	179094
scalar geant_cost_network.client[1] 	avg_time[1] 	0.014009646341
scalar geant_cost_network.client[1] 	interests_sent[1] 	179373
scalar geant_cost_network.client[2] 	hdistance[2] 	3.6913325586438
scalar geant_cost_network.client[2] 	downloads[2] 	179857
scalar geant_cost_network.client[2] 	avg_time[2] 	0.019388922975
scalar geant_cost_network.client[2] 	interests_sent[2] 	180246
scalar geant_cost_network.client[3] 	hdistance[3] 	2.7279218651964
scalar geant_cost_network.client[3] 	downloads[3] 	180099
scalar geant_cost_network.client[3] 	avg_time[3] 	0.008138336449
scalar geant_cost_network.client[3] 	interests_sent[3] 	180257
scalar geant_cost_network.client[4] 	hdistance[4] 	2.6351082952377
scalar geant_cost_network.client[4] 	downloads[4] 	180248
scalar geant_cost_network.client[4] 	avg_time[4] 	0.005967683112
scalar geant_cost_network.client[4] 	interests_sent[4] 	180347
scalar geant_cost_network.client[5] 	hdistance[5] 	2.7016568751146
scalar geant_cost_network.client[5] 	downloads[5] 	179917
scalar geant_cost_network.client[5] 	avg_time[5] 	0.009751283287
scalar geant_cost_network.client[5] 	interests_sent[5] 	180050
scalar geant_cost_network.client[6] 	hdistance[6] 	2.7994970671482
scalar geant_cost_network.client[6] 	downloads[6] 	180541
scalar geant_cost_network.client[6] 	avg_time[6] 	0.006738985682
scalar geant_cost_network.client[6] 	interests_sent[6] 	180622
scalar geant_cost_network.client[7] 	hdistance[7] 	2.4828328674619
scalar geant_cost_network.client[7] 	downloads[7] 	180665
scalar geant_cost_network.client[7] 	avg_time[7] 	0.00507110363
scalar geant_cost_network.client[7] 	interests_sent[7] 	180756
scalar geant_cost_network.client[8] 	hdistance[8] 	2.8769215373411
scalar geant_cost_network.client[8] 	downloads[8] 	179869
scalar geant_cost_network.client[8] 	avg_time[8] 	0.005398821708
scalar geant_cost_network.client[8] 	interests_sent[8] 	179964
scalar geant_cost_network.client[9] 	hdistance[9] 	3.2066364252916
scalar geant_cost_network.client[9] 	downloads[9] 	179886
scalar geant_cost_network.client[9] 	avg_time[9] 	0.006465510985
scalar geant_cost_network.client[9] 	interests_sent[9] 	180000
scalar geant_cost_network.client[10] 	hdistance[10] 	4.1353501238738
scalar geant_cost_network.client[10] 	downloads[10] 	180022
scalar geant_cost_network.client[10] 	avg_time[10] 	0.008363665852
scalar geant_cost_network.client[10] 	interests_sent[10] 	180182
scalar geant_cost_network.client[11] 	hdistance[11] 	4.0522313076978
scalar geant_cost_network.client[11] 	downloads[11] 	180141
scalar geant_cost_network.client[11] 	avg_time[11] 	0.011122770805
scalar geant_cost_network.client[11] 	interests_sent[11] 	180378
scalar geant_cost_network.client[12] 	hdistance[12] 	3.0995200017881
scalar geant_cost_network.client[12] 	downloads[12] 	178959
scalar geant_cost_network.client[12] 	avg_time[12] 	0.009613199641
scalar geant_cost_network.client[12] 	interests_sent[12] 	179142
scalar geant_cost_network.client[13] 	hdistance[13] 	3.0619342357604
scalar geant_cost_network.client[13] 	downloads[13] 	178851
scalar geant_cost_network.client[13] 	avg_time[13] 	0.045240505513
scalar geant_cost_network.client[13] 	interests_sent[13] 	179717
scalar geant_cost_network.client[14] 	hdistance[14] 	2.6270498430382
scalar geant_cost_network.client[14] 	downloads[14] 	179343
scalar geant_cost_network.client[14] 	avg_time[14] 	0.027777330718
scalar geant_cost_network.client[14] 	interests_sent[14] 	179716
scalar geant_cost_network.client[15] 	hdistance[15] 	3.0119918902963
scalar geant_cost_network.client[15] 	downloads[15] 	179538
scalar geant_cost_network.client[15] 	avg_time[15] 	0.012361316861
scalar geant_cost_network.client[15] 	interests_sent[15] 	179817
scalar geant_cost_network.client[16] 	hdistance[16] 	3.6001437750422
scalar geant_cost_network.client[16] 	downloads[16] 	179447
scalar geant_cost_network.client[16] 	avg_time[16] 	0.038049194421
scalar geant_cost_network.client[16] 	interests_sent[16] 	179976
scalar geant_cost_network.client[17] 	hdistance[17] 	3.2736417616966
scalar geant_cost_network.client[17] 	downloads[17] 	180031
scalar geant_cost_network.client[17] 	avg_time[17] 	0.015382767516
scalar geant_cost_network.client[17] 	interests_sent[17] 	180361
scalar geant_cost_network.client[18] 	hdistance[18] 	2.8431030749843
scalar geant_cost_network.client[18] 	downloads[18] 	180131
scalar geant_cost_network.client[18] 	avg_time[18] 	0.009118441867
scalar geant_cost_network.client[18] 	interests_sent[18] 	180315
scalar geant_cost_network.client[19] 	hdistance[19] 	3.7829423335519
scalar geant_cost_network.client[19] 	downloads[19] 	179966
scalar geant_cost_network.client[19] 	avg_time[19] 	0.01080287545
scalar geant_cost_network.client[19] 	interests_sent[19] 	180154
scalar geant_cost_network.client[20] 	hdistance[20] 	3.7924716613976
scalar geant_cost_network.client[20] 	downloads[20] 	179349
scalar geant_cost_network.client[20] 	avg_time[20] 	0.011307642203
scalar geant_cost_network.client[20] 	interests_sent[20] 	179556
scalar geant_cost_network.client[21] 	hdistance[21] 	3.5222511197804
scalar geant_cost_network.client[21] 	downloads[21] 	179946
scalar geant_cost_network.client[21] 	avg_time[21] 	0.01298815249
scalar geant_cost_network.client[21] 	interests_sent[21] 	180188
