version 2
run General-222-20150405-23:46:34-15103
attr D costaware0.01
attr F nrr
attr R lru
attr a 1
attr configname General
attr csize 1e3
attr ctlg 1e5
attr datetime 20150405-23:46:34
attr experiment General
attr inifile omnetpp.ini
attr iterationvars "$rep=16, $net=cost_scenario, $lambda=100, $a=1, $ctlg=1e5, $F=nrr, $ttl=10, $D=costaware0.01, $R=lru, $csize=1e3, $window=60, $variance=0.05, $mytime=1800000, $kappa=1, $priceratiovalue=1, $splits=0.5_0.25_0.25, $pricebits=0"
attr iterationvars2 "$rep=16, $net=cost_scenario, $lambda=100, $a=1, $ctlg=1e5, $F=nrr, $ttl=10, $D=costaware0.01, $R=lru, $csize=1e3, $window=60, $variance=0.05, $mytime=1800000, $kappa=1, $priceratiovalue=1, $splits=0.5_0.25_0.25, $pricebits=0, $repetition=0"
attr kappa 1
attr lambda 100
attr measurement "$rep=16, $net=cost_scenario, $lambda=100, $a=1, $ctlg=1e5, $F=nrr, $ttl=10, $D=costaware0.01, $R=lru, $csize=1e3, $window=60, $variance=0.05, $mytime=1800000, $kappa=1, $priceratiovalue=1, $splits=0.5_0.25_0.25, $pricebits=0"
attr mytime 1800000
attr net cost_scenario
attr network networks.${net=cost_scenario}_network
attr pricebits 0
attr priceratiovalue 1
attr processid 15103
attr rep 16
attr repetition 0
attr replication #0
attr resultdir results
attr runnumber 222
attr seedset 16
attr splits 0.5_0.25_0.25
attr ttl 10
attr variance 0.05
attr window 60

scalar . 	a 	1
scalar . 	csize 	1e3
scalar . 	ctlg 	1e5
scalar . 	kappa 	1
scalar . 	lambda 	100
scalar . 	mytime 	1800000
scalar . 	pricebits 	0
scalar . 	priceratiovalue 	1
scalar . 	rep 	16
scalar . 	ttl 	10
scalar . 	variance 	0.05
scalar . 	window 	60
scalar cost_scenario_network.content_distribution 	repo-0 	1
scalar cost_scenario_network.content_distribution 	repo-1 	2
scalar cost_scenario_network.content_distribution 	repo-2 	3
scalar cost_scenario_network.content_distribution 	client-0 	0
scalar cost_scenario_network.content_distribution 	repo-0_card 	49992
scalar cost_scenario_network.content_distribution 	repo-0_price 	1
scalar cost_scenario_network.content_distribution 	repo-1_card 	25003
scalar cost_scenario_network.content_distribution 	repo-1_price 	0
scalar cost_scenario_network.content_distribution 	repo-2_card 	25005
scalar cost_scenario_network.content_distribution 	repo-2_price 	1
scalar cost_scenario_network.statistics 	repo_popularity[0] 	0.52079833633363
scalar cost_scenario_network.statistics 	repo_popularity[1] 	0.2047448092749
scalar cost_scenario_network.statistics 	repo_popularity[2] 	0.27445685439149
scalar cost_scenario_network.statistics 	stabilization_time 	1257.2
scalar cost_scenario_network.statistics 	p_hit 	0.33882871689752
scalar cost_scenario_network.statistics 	interests 	67220482.25
scalar cost_scenario_network.statistics 	data 	22222126.25
scalar cost_scenario_network.statistics 	hdistance 	0.9876861390225
scalar cost_scenario_network.statistics 	avg_time 	0
scalar cost_scenario_network.statistics 	downloads 	179993424
scalar cost_scenario_network.statistics 	total_cost 	52034093
scalar cost_scenario_network.statistics 	total_replicas 	100000
scalar cost_scenario_network.statistics 	inner_hit 	0.50615693048875
scalar cost_scenario_network.statistics 	interests_sent 	179993424
scalar cost_scenario_network.node[0].core_layer 	interests[0] 	179993424
scalar cost_scenario_network.node[0].core_layer 	data[0] 	88888505
scalar cost_scenario_network.node[0].core_layer 	repo_int[0] 	88888505
scalar cost_scenario_network.node[0].content_store 	p_hit[0] 	0.50615693048875
scalar cost_scenario_network.node[0].content_store 	hits[0] 	91104919
scalar cost_scenario_network.node[0].content_store 	misses[0] 	88888505
scalar cost_scenario_network.node[0].content_store 	decision_yes[0] 	1040117
scalar cost_scenario_network.node[0].content_store 	decision_no[0] 	87848388
scalar cost_scenario_network.node[0].content_store 	decision_ratio[0] 	0.011701366785278
scalar cost_scenario_network.node[0].content_store 	cache_value[0] 	6.1142910767239
scalar cost_scenario_network.node[0].content_store 	average_price_of_cache[0] 	1
scalar cost_scenario_network.node[0].content_store 	correction_factor[0] 	0.02
scalar cost_scenario_network.node[0].content_store 	kappa[0] 	1
scalar cost_scenario_network.node[1].core_layer 	interests[1] 	34951754
scalar cost_scenario_network.node[1].core_layer 	repo_load[1] 	34951754
scalar cost_scenario_network.node[1].core_layer 	data[1] 	0
scalar cost_scenario_network.node[1].content_store 	p_hit[1] 	0
scalar cost_scenario_network.node[1].content_store 	hits[1] 	0
scalar cost_scenario_network.node[1].content_store 	misses[1] 	34951754
scalar cost_scenario_network.node[1].content_store 	decision_yes[1] 	0
scalar cost_scenario_network.node[1].content_store 	decision_no[1] 	34951754
scalar cost_scenario_network.node[1].content_store 	decision_ratio[1] 	0
scalar cost_scenario_network.node[1].content_store 	cache_value[1] 	8.2522480491558e-317
scalar cost_scenario_network.node[1].content_store 	average_price_of_cache[1] 	-nan
scalar cost_scenario_network.node[1].content_store 	correction_factor[1] 	0.02
scalar cost_scenario_network.node[1].content_store 	kappa[1] 	1
scalar cost_scenario_network.node[2].core_layer 	interests[2] 	36854412
scalar cost_scenario_network.node[2].core_layer 	repo_load[2] 	36854412
scalar cost_scenario_network.node[2].core_layer 	data[2] 	0
scalar cost_scenario_network.node[2].content_store 	p_hit[2] 	0
scalar cost_scenario_network.node[2].content_store 	hits[2] 	0
scalar cost_scenario_network.node[2].content_store 	misses[2] 	36854412
scalar cost_scenario_network.node[2].content_store 	decision_yes[2] 	0
scalar cost_scenario_network.node[2].content_store 	decision_no[2] 	36854412
scalar cost_scenario_network.node[2].content_store 	decision_ratio[2] 	0
scalar cost_scenario_network.node[2].content_store 	cache_value[2] 	8.2538369642729e-317
scalar cost_scenario_network.node[2].content_store 	average_price_of_cache[2] 	-nan
scalar cost_scenario_network.node[2].content_store 	correction_factor[2] 	0.02
scalar cost_scenario_network.node[2].content_store 	kappa[2] 	1
scalar cost_scenario_network.node[3].core_layer 	interests[3] 	17082339
scalar cost_scenario_network.node[3].core_layer 	repo_load[3] 	17082339
scalar cost_scenario_network.node[3].core_layer 	data[3] 	0
scalar cost_scenario_network.node[3].content_store 	p_hit[3] 	0
scalar cost_scenario_network.node[3].content_store 	hits[3] 	0
scalar cost_scenario_network.node[3].content_store 	misses[3] 	17082339
scalar cost_scenario_network.node[3].content_store 	decision_yes[3] 	0
scalar cost_scenario_network.node[3].content_store 	decision_no[3] 	17082339
scalar cost_scenario_network.node[3].content_store 	decision_ratio[3] 	0
scalar cost_scenario_network.node[3].content_store 	cache_value[3] 	8.2554258793899e-317
scalar cost_scenario_network.node[3].content_store 	average_price_of_cache[3] 	-nan
scalar cost_scenario_network.node[3].content_store 	correction_factor[3] 	0.02
scalar cost_scenario_network.node[3].content_store 	kappa[3] 	1
scalar cost_scenario_network.client[0] 	hdistance[0] 	0.9876861390225
scalar cost_scenario_network.client[0] 	downloads[0] 	179993424
scalar cost_scenario_network.client[0] 	avg_time[0] 	0
scalar cost_scenario_network.client[0] 	interests_sent[0] 	179993424
