version 2
run General-16-20150720-19:05:34-16180
attr C 1e4
attr D lce
attr F spr
attr R lru
attr a 1
attr brates 1
attr configname General
attr ctlg 1e6
attr datetime 20150720-19:05:34
attr experiment General
attr inifile omnetpp.ini
attr iterationvars "$net=abilene_nodelay, $rep=8, $lambda=100, $a=1, $ctlg=1e6, $brates=1, $F=spr, $ttl=1000, $D=lce, $R=lru, $C=1e4, $window=60, $variance=0.05, $mytime=1800"
attr iterationvars2 "$net=abilene_nodelay, $rep=8, $lambda=100, $a=1, $ctlg=1e6, $brates=1, $F=spr, $ttl=1000, $D=lce, $R=lru, $C=1e4, $window=60, $variance=0.05, $mytime=1800, $repetition=0"
attr lambda 100
attr measurement "$net=abilene_nodelay, $rep=8, $lambda=100, $a=1, $ctlg=1e6, $brates=1, $F=spr, $ttl=1000, $D=lce, $R=lru, $C=1e4, $window=60, $variance=0.05, $mytime=1800"
attr mytime 1800
attr net abilene_nodelay
attr network networks.${net=abilene_nodelay}_network
attr processid 16180
attr rep 8
attr repetition 0
attr replication #0
attr resultdir results
attr runnumber 16
attr seedset 8
attr ttl 1000
attr variance 0.05
attr window 60

scalar . 	C 	1e4
scalar . 	a 	1
scalar . 	brates 	1
scalar . 	ctlg 	1e6
scalar . 	lambda 	100
scalar . 	mytime 	1800
scalar . 	rep 	8
scalar . 	ttl 	1000
scalar . 	variance 	0.05
scalar . 	window 	60
scalar abilene_nodelay_network.content_distribution 	repo-0 	4
scalar abilene_nodelay_network.content_distribution 	repo-1 	10
scalar abilene_nodelay_network.content_distribution 	repo-2 	6
scalar abilene_nodelay_network.content_distribution 	repo-3 	7
scalar abilene_nodelay_network.content_distribution 	repo-4 	2
scalar abilene_nodelay_network.content_distribution 	repo-5 	8
scalar abilene_nodelay_network.content_distribution 	repo-6 	9
scalar abilene_nodelay_network.content_distribution 	repo-7 	5
scalar abilene_nodelay_network.content_distribution 	repo-8 	1
scalar abilene_nodelay_network.content_distribution 	repo-9 	3
scalar abilene_nodelay_network.content_distribution 	repo-10 	0
scalar abilene_nodelay_network.content_distribution 	client-0 	9
scalar abilene_nodelay_network.content_distribution 	client-1 	0
scalar abilene_nodelay_network.content_distribution 	client-2 	2
scalar abilene_nodelay_network.content_distribution 	client-3 	5
scalar abilene_nodelay_network.content_distribution 	client-4 	4
scalar abilene_nodelay_network.content_distribution 	client-5 	10
scalar abilene_nodelay_network.content_distribution 	client-6 	1
scalar abilene_nodelay_network.content_distribution 	client-7 	6
scalar abilene_nodelay_network.content_distribution 	client-8 	8
scalar abilene_nodelay_network.content_distribution 	client-9 	3
scalar abilene_nodelay_network.content_distribution 	client-10 	7
scalar abilene_nodelay_network.content_distribution 	repo-0_card 	91455
scalar abilene_nodelay_network.content_distribution 	repo-0_price 	0
scalar abilene_nodelay_network.content_distribution 	repo-1_card 	90753
scalar abilene_nodelay_network.content_distribution 	repo-1_price 	0
scalar abilene_nodelay_network.content_distribution 	repo-2_card 	90990
scalar abilene_nodelay_network.content_distribution 	repo-2_price 	0
scalar abilene_nodelay_network.content_distribution 	repo-3_card 	90852
scalar abilene_nodelay_network.content_distribution 	repo-3_price 	0
scalar abilene_nodelay_network.content_distribution 	repo-4_card 	91138
scalar abilene_nodelay_network.content_distribution 	repo-4_price 	0
scalar abilene_nodelay_network.content_distribution 	repo-5_card 	90904
scalar abilene_nodelay_network.content_distribution 	repo-5_price 	0
scalar abilene_nodelay_network.content_distribution 	repo-6_card 	90400
scalar abilene_nodelay_network.content_distribution 	repo-6_price 	0
scalar abilene_nodelay_network.content_distribution 	repo-7_card 	90783
scalar abilene_nodelay_network.content_distribution 	repo-7_price 	0
scalar abilene_nodelay_network.content_distribution 	repo-8_card 	91409
scalar abilene_nodelay_network.content_distribution 	repo-8_price 	0
scalar abilene_nodelay_network.content_distribution 	repo-9_card 	90839
scalar abilene_nodelay_network.content_distribution 	repo-9_price 	0
scalar abilene_nodelay_network.content_distribution 	repo-10_card 	90477
scalar abilene_nodelay_network.content_distribution 	repo-10_price 	0
scalar abilene_nodelay_network.statistics 	stabilization_time 	289
scalar abilene_nodelay_network.statistics 	p_hit 	0.28793838197974
scalar abilene_nodelay_network.statistics 	interests 	345542.36363636
scalar abilene_nodelay_network.statistics 	data 	165519.18181818
scalar abilene_nodelay_network.statistics 	hdistance 	1.3666547850543
scalar abilene_nodelay_network.statistics 	avg_time 	0
scalar abilene_nodelay_network.statistics 	downloads 	1980255
scalar abilene_nodelay_network.statistics 	total_cost 	0
scalar abilene_nodelay_network.statistics 	total_replicas 	1000000
scalar abilene_nodelay_network.statistics 	"representations_downloaded 1:" 	0
scalar abilene_nodelay_network.statistics 	"slots_per_representation 100:" 	0
scalar abilene_nodelay_network.statistics 	inner_hit 	0.55267831668144
scalar abilene_nodelay_network.statistics 	execution_time 	81
scalar abilene_nodelay_network.node[0].core_layer 	interests[0] 	241015
scalar abilene_nodelay_network.node[0].core_layer 	repo_load[0] 	74997
scalar abilene_nodelay_network.node[0].core_layer 	data[0] 	72389
scalar abilene_nodelay_network.node[0].core_layer 	slots_sent[face$o[1]->client[0]] 	18039300
scalar abilene_nodelay_network.node[0].core_layer 	slots_sent[face$o[2]->node[1]] 	4718600
scalar abilene_nodelay_network.node[0].core_layer 	slots_sent[face$o[3]->node[10]] 	1343600
scalar abilene_nodelay_network.node[0].content_store 	p_hit[0] 	0.38847789556667
scalar abilene_nodelay_network.node[0].content_store 	hits[0] 	93629
scalar abilene_nodelay_network.node[0].content_store 	misses[0] 	147386
scalar abilene_nodelay_network.node[0].content_store 	decision_yes[0] 	72389
scalar abilene_nodelay_network.node[0].content_store 	decision_no[0] 	74997
scalar abilene_nodelay_network.node[0].content_store 	decision_ratio[0] 	0.4911524839537
scalar abilene_nodelay_network.node[1].core_layer 	interests[1] 	400364
scalar abilene_nodelay_network.node[1].core_layer 	repo_load[1] 	82223
scalar abilene_nodelay_network.node[1].core_layer 	data[1] 	215106
scalar abilene_nodelay_network.node[1].core_layer 	slots_sent[face$o[1]->client[1]] 	18040500
scalar abilene_nodelay_network.node[1].core_layer 	slots_sent[face$o[2]->node[0]] 	5810800
scalar abilene_nodelay_network.node[1].core_layer 	slots_sent[face$o[3]->node[10]] 	4364100
scalar abilene_nodelay_network.node[1].core_layer 	slots_sent[face$o[4]->node[2]] 	11821000
scalar abilene_nodelay_network.node[1].content_store 	p_hit[1] 	0.25735330848927
scalar abilene_nodelay_network.node[1].content_store 	hits[1] 	103035
scalar abilene_nodelay_network.node[1].content_store 	misses[1] 	297329
scalar abilene_nodelay_network.node[1].content_store 	decision_yes[1] 	215106
scalar abilene_nodelay_network.node[1].content_store 	decision_no[1] 	82223
scalar abilene_nodelay_network.node[1].content_store 	decision_ratio[1] 	0.72346121636302
scalar abilene_nodelay_network.node[2].core_layer 	interests[2] 	519611
scalar abilene_nodelay_network.node[2].core_layer 	repo_load[2] 	80616
scalar abilene_nodelay_network.node[2].core_layer 	data[2] 	324422
scalar abilene_nodelay_network.node[2].core_layer 	slots_sent[face$o[1]->client[2]] 	17930800
scalar abilene_nodelay_network.node[2].core_layer 	slots_sent[face$o[2]->node[1]] 	12754100
scalar abilene_nodelay_network.node[2].core_layer 	slots_sent[face$o[3]->node[3]] 	15240700
scalar abilene_nodelay_network.node[2].core_layer 	slots_sent[face$o[4]->node[8]] 	6035500
scalar abilene_nodelay_network.node[2].content_store 	p_hit[2] 	0.2204976415049
scalar abilene_nodelay_network.node[2].content_store 	hits[2] 	114573
scalar abilene_nodelay_network.node[2].content_store 	misses[2] 	405038
scalar abilene_nodelay_network.node[2].content_store 	decision_yes[2] 	324422
scalar abilene_nodelay_network.node[2].content_store 	decision_no[2] 	80616
scalar abilene_nodelay_network.node[2].content_store 	decision_ratio[2] 	0.800966822866
scalar abilene_nodelay_network.node[3].core_layer 	interests[3] 	491289
scalar abilene_nodelay_network.node[3].core_layer 	repo_load[3] 	79804
scalar abilene_nodelay_network.node[3].core_layer 	data[3] 	297863
scalar abilene_nodelay_network.node[3].core_layer 	slots_sent[face$o[1]->client[3]] 	18021700
scalar abilene_nodelay_network.node[3].core_layer 	slots_sent[face$o[2]->node[2]] 	14974200
scalar abilene_nodelay_network.node[3].core_layer 	slots_sent[face$o[3]->node[4]] 	9398800
scalar abilene_nodelay_network.node[3].core_layer 	slots_sent[face$o[4]->node[7]] 	6734200
scalar abilene_nodelay_network.node[3].content_store 	p_hit[3] 	0.23127324242961
scalar abilene_nodelay_network.node[3].content_store 	hits[3] 	113622
scalar abilene_nodelay_network.node[3].content_store 	misses[3] 	377667
scalar abilene_nodelay_network.node[3].content_store 	decision_yes[3] 	297863
scalar abilene_nodelay_network.node[3].content_store 	decision_no[3] 	79804
scalar abilene_nodelay_network.node[3].content_store 	decision_ratio[3] 	0.7886921547289
scalar abilene_nodelay_network.node[4].core_layer 	interests[4] 	313810
scalar abilene_nodelay_network.node[4].core_layer 	repo_load[4] 	77994
scalar abilene_nodelay_network.node[4].core_layer 	data[4] 	136589
scalar abilene_nodelay_network.node[4].core_layer 	slots_sent[face$o[1]->client[4]] 	18010500
scalar abilene_nodelay_network.node[4].core_layer 	slots_sent[face$o[2]->node[3]] 	8315100
scalar abilene_nodelay_network.node[4].core_layer 	slots_sent[face$o[3]->node[5]] 	5055400
scalar abilene_nodelay_network.node[4].content_store 	p_hit[4] 	0.31620088588636
scalar abilene_nodelay_network.node[4].content_store 	hits[4] 	99227
scalar abilene_nodelay_network.node[4].content_store 	misses[4] 	214583
scalar abilene_nodelay_network.node[4].content_store 	decision_yes[4] 	136589
scalar abilene_nodelay_network.node[4].content_store 	decision_no[4] 	77994
scalar abilene_nodelay_network.node[4].content_store 	decision_ratio[4] 	0.63653225092388
scalar abilene_nodelay_network.node[5].core_layer 	interests[5] 	254732
scalar abilene_nodelay_network.node[5].core_layer 	repo_load[5] 	78497
scalar abilene_nodelay_network.node[5].core_layer 	data[5] 	86204
scalar abilene_nodelay_network.node[5].core_layer 	slots_sent[face$o[1]->client[5]] 	18006000
scalar abilene_nodelay_network.node[5].core_layer 	slots_sent[face$o[2]->node[4]] 	4260100
scalar abilene_nodelay_network.node[5].core_layer 	slots_sent[face$o[3]->node[6]] 	3207100
scalar abilene_nodelay_network.node[5].content_store 	p_hit[5] 	0.35343419750954
scalar abilene_nodelay_network.node[5].content_store 	hits[5] 	90031
scalar abilene_nodelay_network.node[5].content_store 	misses[5] 	164701
scalar abilene_nodelay_network.node[5].content_store 	decision_yes[5] 	86204
scalar abilene_nodelay_network.node[5].content_store 	decision_no[5] 	78497
scalar abilene_nodelay_network.node[5].content_store 	decision_ratio[5] 	0.52339694355226
scalar abilene_nodelay_network.node[6].core_layer 	interests[6] 	283225
scalar abilene_nodelay_network.node[6].core_layer 	repo_load[6] 	85871
scalar abilene_nodelay_network.node[6].core_layer 	data[6] 	112060
scalar abilene_nodelay_network.node[6].core_layer 	slots_sent[face$o[1]->client[6]] 	18051000
scalar abilene_nodelay_network.node[6].core_layer 	slots_sent[face$o[2]->node[5]] 	3565000
scalar abilene_nodelay_network.node[6].core_layer 	slots_sent[face$o[3]->node[7]] 	6706500
scalar abilene_nodelay_network.node[6].content_store 	p_hit[6] 	0.30115279371524
scalar abilene_nodelay_network.node[6].content_store 	hits[6] 	85294
scalar abilene_nodelay_network.node[6].content_store 	misses[6] 	197931
scalar abilene_nodelay_network.node[6].content_store 	decision_yes[6] 	112060
scalar abilene_nodelay_network.node[6].content_store 	decision_no[6] 	85871
scalar abilene_nodelay_network.node[6].content_store 	decision_ratio[6] 	0.56615689305869
scalar abilene_nodelay_network.node[7].core_layer 	interests[7] 	377219
scalar abilene_nodelay_network.node[7].core_layer 	repo_load[7] 	92689
scalar abilene_nodelay_network.node[7].core_layer 	data[7] 	189610
scalar abilene_nodelay_network.node[7].core_layer 	slots_sent[face$o[1]->client[7]] 	17986100
scalar abilene_nodelay_network.node[7].core_layer 	slots_sent[face$o[2]->node[3]] 	6230500
scalar abilene_nodelay_network.node[7].core_layer 	slots_sent[face$o[3]->node[6]] 	7998900
scalar abilene_nodelay_network.node[7].core_layer 	slots_sent[face$o[4]->node[8]] 	5506400
scalar abilene_nodelay_network.node[7].content_store 	p_hit[7] 	0.25163101540484
scalar abilene_nodelay_network.node[7].content_store 	hits[7] 	94920
scalar abilene_nodelay_network.node[7].content_store 	misses[7] 	282299
scalar abilene_nodelay_network.node[7].content_store 	decision_yes[7] 	189610
scalar abilene_nodelay_network.node[7].content_store 	decision_no[7] 	92689
scalar abilene_nodelay_network.node[7].content_store 	decision_ratio[7] 	0.67166373242555
scalar abilene_nodelay_network.node[8].core_layer 	interests[8] 	364156
scalar abilene_nodelay_network.node[8].core_layer 	repo_load[8] 	86420
scalar abilene_nodelay_network.node[8].core_layer 	data[8] 	176597
scalar abilene_nodelay_network.node[8].core_layer 	slots_sent[face$o[1]->client[8]] 	18027300
scalar abilene_nodelay_network.node[8].core_layer 	slots_sent[face$o[2]->node[2]] 	5647000
scalar abilene_nodelay_network.node[8].core_layer 	slots_sent[face$o[3]->node[7]] 	5520300
scalar abilene_nodelay_network.node[8].core_layer 	slots_sent[face$o[4]->node[9]] 	7221000
scalar abilene_nodelay_network.node[8].content_store 	p_hit[8] 	0.27773536616175
scalar abilene_nodelay_network.node[8].content_store 	hits[8] 	101139
scalar abilene_nodelay_network.node[8].content_store 	misses[8] 	263017
scalar abilene_nodelay_network.node[8].content_store 	decision_yes[8] 	176597
scalar abilene_nodelay_network.node[8].content_store 	decision_no[8] 	86420
scalar abilene_nodelay_network.node[8].content_store 	decision_ratio[8] 	0.67142808259542
scalar abilene_nodelay_network.node[9].core_layer 	interests[9] 	281872
scalar abilene_nodelay_network.node[9].core_layer 	repo_load[9] 	71169
scalar abilene_nodelay_network.node[9].core_layer 	data[9] 	111784
scalar abilene_nodelay_network.node[9].core_layer 	slots_sent[face$o[1]->client[9]] 	17968400
scalar abilene_nodelay_network.node[9].core_layer 	slots_sent[face$o[2]->node[10]] 	4101000
scalar abilene_nodelay_network.node[9].core_layer 	slots_sent[face$o[3]->node[8]] 	6117800
scalar abilene_nodelay_network.node[9].content_store 	p_hit[9] 	0.35093588579213
scalar abilene_nodelay_network.node[9].content_store 	hits[9] 	98919
scalar abilene_nodelay_network.node[9].content_store 	misses[9] 	182953
scalar abilene_nodelay_network.node[9].content_store 	decision_yes[9] 	111784
scalar abilene_nodelay_network.node[9].content_store 	decision_no[9] 	71169
scalar abilene_nodelay_network.node[9].content_store 	decision_ratio[9] 	0.61099845315464
scalar abilene_nodelay_network.node[10].core_layer 	interests[10] 	273673
scalar abilene_nodelay_network.node[10].core_layer 	repo_load[10] 	75531
scalar abilene_nodelay_network.node[10].core_layer 	data[10] 	98087
scalar abilene_nodelay_network.node[10].core_layer 	slots_sent[face$o[1]->client[10]] 	17943900
scalar abilene_nodelay_network.node[10].core_layer 	slots_sent[face$o[2]->node[0]] 	1428100
scalar abilene_nodelay_network.node[10].core_layer 	slots_sent[face$o[3]->node[1]] 	4037900
scalar abilene_nodelay_network.node[10].core_layer 	slots_sent[face$o[4]->node[9]] 	3957400
scalar abilene_nodelay_network.node[10].content_store 	p_hit[10] 	0.36560055248417
scalar abilene_nodelay_network.node[10].content_store 	hits[10] 	100055
scalar abilene_nodelay_network.node[10].content_store 	misses[10] 	173618
scalar abilene_nodelay_network.node[10].content_store 	decision_yes[10] 	98087
scalar abilene_nodelay_network.node[10].content_store 	decision_no[10] 	75531
scalar abilene_nodelay_network.node[10].content_store 	decision_ratio[10] 	0.56495870243869
scalar abilene_nodelay_network.client[0] 	hdistance[0].real 	1.4987000604236
scalar abilene_nodelay_network.client[0] 	downloads[0].real 	180393
scalar abilene_nodelay_network.client[0] 	avg_time[0].real 	0
scalar abilene_nodelay_network.client[1] 	hdistance[1].real 	1.3568692663729
scalar abilene_nodelay_network.client[1] 	downloads[1].real 	180405
scalar abilene_nodelay_network.client[1] 	avg_time[1].real 	0
scalar abilene_nodelay_network.client[2] 	hdistance[2].real 	1.2115856515047
scalar abilene_nodelay_network.client[2] 	downloads[2].real 	179308
scalar abilene_nodelay_network.client[2] 	avg_time[2].real 	0
scalar abilene_nodelay_network.client[3] 	hdistance[3].real 	1.2436063190487
scalar abilene_nodelay_network.client[3] 	downloads[3].real 	180217
scalar abilene_nodelay_network.client[3] 	avg_time[3].real 	0
scalar abilene_nodelay_network.client[4] 	hdistance[4].real 	1.4264901029955
scalar abilene_nodelay_network.client[4] 	downloads[4].real 	180105
scalar abilene_nodelay_network.client[4] 	avg_time[4].real 	0
scalar abilene_nodelay_network.client[5] 	hdistance[5].real 	1.5389814506276
scalar abilene_nodelay_network.client[5] 	downloads[5].real 	180060
scalar abilene_nodelay_network.client[5] 	avg_time[5].real 	0
scalar abilene_nodelay_network.client[6] 	hdistance[6].real 	1.5076228463797
scalar abilene_nodelay_network.client[6] 	downloads[6].real 	180510
scalar abilene_nodelay_network.client[6] 	avg_time[6].real 	0
scalar abilene_nodelay_network.client[7] 	hdistance[7].real 	1.3123634362091
scalar abilene_nodelay_network.client[7] 	downloads[7].real 	179861
scalar abilene_nodelay_network.client[7] 	avg_time[7].real 	0
scalar abilene_nodelay_network.client[8] 	hdistance[8].real 	1.2336012603107
scalar abilene_nodelay_network.client[8] 	downloads[8].real 	180273
scalar abilene_nodelay_network.client[8] 	avg_time[8].real 	0
scalar abilene_nodelay_network.client[9] 	hdistance[9].real 	1.3338527637408
scalar abilene_nodelay_network.client[9] 	downloads[9].real 	179684
scalar abilene_nodelay_network.client[9] 	avg_time[9].real 	0
scalar abilene_nodelay_network.client[10] 	hdistance[10].real 	1.3695294779842
scalar abilene_nodelay_network.client[10] 	downloads[10].real 	179439
scalar abilene_nodelay_network.client[10] 	avg_time[10].real 	0
