version 2
run General-4-20141030-18:28:31-30768
attr D fix0.01
attr F spr
attr R lru
attr a 1
attr configname General
attr csize 1e3
attr ctlg 1e5
attr datetime 20141030-18:28:31
attr experiment General
attr inifile omnetpp.ini
attr iterationvars "$rep=10, $lambda=100, $a=1, $ctlg=1e5, $F=spr, $ttl=10, $D=fix0.01, $R=lru, $csize=1e3, $window=60, $variance=0.05, $mytime=1800, $kappa=1, $priceratiovalue=10, $pricebits=0"
attr iterationvars2 "$rep=10, $lambda=100, $a=1, $ctlg=1e5, $F=spr, $ttl=10, $D=fix0.01, $R=lru, $csize=1e3, $window=60, $variance=0.05, $mytime=1800, $kappa=1, $priceratiovalue=10, $pricebits=0, $repetition=0"
attr kappa 1
attr lambda 100
attr measurement "$rep=10, $lambda=100, $a=1, $ctlg=1e5, $F=spr, $ttl=10, $D=fix0.01, $R=lru, $csize=1e3, $window=60, $variance=0.05, $mytime=1800, $kappa=1, $priceratiovalue=10, $pricebits=0"
attr mytime 1800
attr network networks.ws${rep}_network
attr pricebits 0
attr priceratiovalue 10
attr processid 30768
attr rep 10
attr repetition 0
attr replication #0
attr resultdir results
attr runnumber 4
attr seedset 10
attr ttl 10
attr variance 0.05
attr window 60

scalar . 	a 	1
scalar . 	csize 	1e3
scalar . 	ctlg 	1e5
scalar . 	kappa 	1
scalar . 	lambda 	100
scalar . 	mytime 	1800
scalar . 	pricebits 	0
scalar . 	priceratiovalue 	10
scalar . 	rep 	10
scalar . 	ttl 	10
scalar . 	variance 	0.05
scalar . 	window 	60
scalar ws10_network.content_distribution 	repo-0 	18
scalar ws10_network.content_distribution 	repo-1 	16
scalar ws10_network.content_distribution 	repo-2 	2
scalar ws10_network.content_distribution 	client-0 	6
scalar ws10_network.content_distribution 	client-1 	10
scalar ws10_network.content_distribution 	client-2 	14
scalar ws10_network.content_distribution 	repo-0_card 	33052
scalar ws10_network.content_distribution 	repo-0_price 	1
scalar ws10_network.content_distribution 	repo-1_card 	33537
scalar ws10_network.content_distribution 	repo-1_price 	0
scalar ws10_network.content_distribution 	repo-2_card 	33411
scalar ws10_network.content_distribution 	repo-2_price 	10
scalar ws10_network.statistics 	repo_popularity[0] 	0.34236468954978
scalar ws10_network.statistics 	repo_popularity[1] 	0.29818826856529
scalar ws10_network.statistics 	repo_popularity[2] 	0.35944704188494
scalar ws10_network.statistics 	stabilization_time 	36060
scalar ws10_network.statistics 	p_hit 	0.18589355203891
scalar ws10_network.statistics 	interests 	58742.318181818
scalar ws10_network.statistics 	data 	34180.590909091
scalar ws10_network.statistics 	hdistance 	1.9476514912599
scalar ws10_network.statistics 	avg_time 	0.007211767972
scalar ws10_network.statistics 	downloads 	540253
scalar ws10_network.statistics 	total_cost 	1040823
scalar ws10_network.statistics 	total_replicas 	100000
scalar ws10_network.statistics 	inner_hit 	0.44468424978667
scalar ws10_network.statistics 	interests_sent 	540359
scalar ws10_network.node[0].core_layer 	interests[0] 	111289
scalar ws10_network.node[0].core_layer 	data[0] 	103928
scalar ws10_network.node[0].core_layer 	repo_int[0] 	300011
scalar ws10_network.node[0].content_store 	p_hit[0] 	0.066143104889073
scalar ws10_network.node[0].content_store 	hits[0] 	7361
scalar ws10_network.node[0].content_store 	misses[0] 	103928
scalar ws10_network.node[0].content_store 	decision_yes[0] 	1060
scalar ws10_network.node[0].content_store 	decision_no[0] 	102868
scalar ws10_network.node[0].content_store 	decision_ratio[0] 	0.01019936879378
scalar ws10_network.node[1].core_layer 	interests[1] 	79967
scalar ws10_network.node[1].core_layer 	data[1] 	74041
scalar ws10_network.node[1].content_store 	p_hit[1] 	0.074118073705403
scalar ws10_network.node[1].content_store 	hits[1] 	5927
scalar ws10_network.node[1].content_store 	misses[1] 	74040
scalar ws10_network.node[1].content_store 	decision_yes[1] 	717
scalar ws10_network.node[1].content_store 	decision_no[1] 	73324
scalar ws10_network.node[1].content_store 	decision_ratio[1] 	0.0096838238273389
scalar ws10_network.node[2].core_layer 	interests[2] 	100349
scalar ws10_network.node[2].core_layer 	repo_load[2] 	94474
scalar ws10_network.node[2].core_layer 	data[2] 	0
scalar ws10_network.node[2].content_store 	p_hit[2] 	0.058545675592183
scalar ws10_network.node[2].content_store 	hits[2] 	5875
scalar ws10_network.node[2].content_store 	misses[2] 	94474
scalar ws10_network.node[2].content_store 	decision_yes[2] 	937
scalar ws10_network.node[2].content_store 	decision_no[2] 	93537
scalar ws10_network.node[2].content_store 	decision_ratio[2] 	0.00991807269725
scalar ws10_network.node[3].core_layer 	interests[3] 	38510
scalar ws10_network.node[3].core_layer 	data[3] 	33604
scalar ws10_network.node[3].content_store 	p_hit[3] 	0.12739548169307
scalar ws10_network.node[3].content_store 	hits[3] 	4906
scalar ws10_network.node[3].content_store 	misses[3] 	33604
scalar ws10_network.node[3].content_store 	decision_yes[3] 	332
scalar ws10_network.node[3].content_store 	decision_no[3] 	33272
scalar ws10_network.node[3].content_store 	decision_ratio[3] 	0.009879776217117
scalar ws10_network.node[4].core_layer 	interests[4] 	0
scalar ws10_network.node[4].core_layer 	data[4] 	0
scalar ws10_network.node[4].content_store 	p_hit[4] 	-nan
scalar ws10_network.node[4].content_store 	hits[4] 	0
scalar ws10_network.node[4].content_store 	misses[4] 	0
scalar ws10_network.node[4].content_store 	decision_yes[4] 	0
scalar ws10_network.node[4].content_store 	decision_no[4] 	0
scalar ws10_network.node[4].content_store 	decision_ratio[4] 	0
scalar ws10_network.node[5].core_layer 	interests[5] 	0
scalar ws10_network.node[5].core_layer 	data[5] 	0
scalar ws10_network.node[5].content_store 	p_hit[5] 	-nan
scalar ws10_network.node[5].content_store 	hits[5] 	0
scalar ws10_network.node[5].content_store 	misses[5] 	0
scalar ws10_network.node[5].content_store 	decision_yes[5] 	0
scalar ws10_network.node[5].content_store 	decision_no[5] 	0
scalar ws10_network.node[5].content_store 	decision_ratio[5] 	0
scalar ws10_network.node[6].core_layer 	interests[6] 	179478
scalar ws10_network.node[6].core_layer 	data[6] 	120568
scalar ws10_network.node[6].content_store 	p_hit[6] 	0.32799006006307
scalar ws10_network.node[6].content_store 	hits[6] 	58867
scalar ws10_network.node[6].content_store 	misses[6] 	120611
scalar ws10_network.node[6].content_store 	decision_yes[6] 	1243
scalar ws10_network.node[6].content_store 	decision_no[6] 	119325
scalar ws10_network.node[6].content_store 	decision_ratio[6] 	0.01030953486829
scalar ws10_network.node[7].core_layer 	interests[7] 	0
scalar ws10_network.node[7].core_layer 	data[7] 	0
scalar ws10_network.node[7].content_store 	p_hit[7] 	-nan
scalar ws10_network.node[7].content_store 	hits[7] 	0
scalar ws10_network.node[7].content_store 	misses[7] 	0
scalar ws10_network.node[7].content_store 	decision_yes[7] 	0
scalar ws10_network.node[7].content_store 	decision_no[7] 	0
scalar ws10_network.node[7].content_store 	decision_ratio[7] 	0
scalar ws10_network.node[8].core_layer 	interests[8] 	0
scalar ws10_network.node[8].core_layer 	data[8] 	0
scalar ws10_network.node[8].content_store 	p_hit[8] 	-nan
scalar ws10_network.node[8].content_store 	hits[8] 	0
scalar ws10_network.node[8].content_store 	misses[8] 	0
scalar ws10_network.node[8].content_store 	decision_yes[8] 	0
scalar ws10_network.node[8].content_store 	decision_no[8] 	0
scalar ws10_network.node[8].content_store 	decision_ratio[8] 	0
scalar ws10_network.node[9].core_layer 	interests[9] 	0
scalar ws10_network.node[9].core_layer 	data[9] 	0
scalar ws10_network.node[9].content_store 	p_hit[9] 	-nan
scalar ws10_network.node[9].content_store 	hits[9] 	0
scalar ws10_network.node[9].content_store 	misses[9] 	0
scalar ws10_network.node[9].content_store 	decision_yes[9] 	0
scalar ws10_network.node[9].content_store 	decision_no[9] 	0
scalar ws10_network.node[9].content_store 	decision_ratio[9] 	0
scalar ws10_network.node[10].core_layer 	interests[10] 	180211
scalar ws10_network.node[10].core_layer 	data[10] 	120025
scalar ws10_network.node[10].content_store 	p_hit[10] 	0.33374766246234
scalar ws10_network.node[10].content_store 	hits[10] 	60145
scalar ws10_network.node[10].content_store 	misses[10] 	120066
scalar ws10_network.node[10].content_store 	decision_yes[10] 	1129
scalar ws10_network.node[10].content_store 	decision_no[10] 	118896
scalar ws10_network.node[10].content_store 	decision_ratio[10] 	0.0094063736721516
scalar ws10_network.node[11].core_layer 	interests[11] 	0
scalar ws10_network.node[11].core_layer 	data[11] 	0
scalar ws10_network.node[11].content_store 	p_hit[11] 	-nan
scalar ws10_network.node[11].content_store 	hits[11] 	0
scalar ws10_network.node[11].content_store 	misses[11] 	0
scalar ws10_network.node[11].content_store 	decision_yes[11] 	0
scalar ws10_network.node[11].content_store 	decision_no[11] 	0
scalar ws10_network.node[11].content_store 	decision_ratio[11] 	0
scalar ws10_network.node[12].core_layer 	interests[12] 	79036
scalar ws10_network.node[12].core_layer 	data[12] 	68503
scalar ws10_network.node[12].content_store 	p_hit[12] 	0.13320512171669
scalar ws10_network.node[12].content_store 	hits[12] 	10528
scalar ws10_network.node[12].content_store 	misses[12] 	68508
scalar ws10_network.node[12].content_store 	decision_yes[12] 	662
scalar ws10_network.node[12].content_store 	decision_no[12] 	67841
scalar ws10_network.node[12].content_store 	decision_ratio[12] 	0.0096638103440725
scalar ws10_network.node[13].core_layer 	interests[13] 	0
scalar ws10_network.node[13].core_layer 	data[13] 	0
scalar ws10_network.node[13].content_store 	p_hit[13] 	-nan
scalar ws10_network.node[13].content_store 	hits[13] 	0
scalar ws10_network.node[13].content_store 	misses[13] 	0
scalar ws10_network.node[13].content_store 	decision_yes[13] 	0
scalar ws10_network.node[13].content_store 	decision_no[13] 	0
scalar ws10_network.node[13].content_store 	decision_ratio[13] 	0
scalar ws10_network.node[14].core_layer 	interests[14] 	180670
scalar ws10_network.node[14].core_layer 	data[14] 	120383
scalar ws10_network.node[14].content_store 	p_hit[14] 	0.33356395638457
scalar ws10_network.node[14].content_store 	hits[14] 	60265
scalar ws10_network.node[14].content_store 	misses[14] 	120405
scalar ws10_network.node[14].content_store 	decision_yes[14] 	1220
scalar ws10_network.node[14].content_store 	decision_no[14] 	119163
scalar ws10_network.node[14].content_store 	decision_ratio[14] 	0.010134321291212
scalar ws10_network.node[15].core_layer 	interests[15] 	0
scalar ws10_network.node[15].core_layer 	data[15] 	0
scalar ws10_network.node[15].content_store 	p_hit[15] 	-nan
scalar ws10_network.node[15].content_store 	hits[15] 	0
scalar ws10_network.node[15].content_store 	misses[15] 	0
scalar ws10_network.node[15].content_store 	decision_yes[15] 	0
scalar ws10_network.node[15].content_store 	decision_no[15] 	0
scalar ws10_network.node[15].content_store 	decision_ratio[15] 	0
scalar ws10_network.node[16].core_layer 	interests[16] 	199546
scalar ws10_network.node[16].core_layer 	repo_load[16] 	109454
scalar ws10_network.node[16].core_layer 	data[16] 	76207
scalar ws10_network.node[16].content_store 	p_hit[16] 	0.069582953304
scalar ws10_network.node[16].content_store 	hits[16] 	13885
scalar ws10_network.node[16].content_store 	misses[16] 	185661
scalar ws10_network.node[16].content_store 	decision_yes[16] 	1825
scalar ws10_network.node[16].content_store 	decision_no[16] 	183836
scalar ws10_network.node[16].content_store 	decision_ratio[16] 	0.0098297434571612
scalar ws10_network.node[17].core_layer 	interests[17] 	0
scalar ws10_network.node[17].core_layer 	data[17] 	0
scalar ws10_network.node[17].content_store 	p_hit[17] 	-nan
scalar ws10_network.node[17].content_store 	hits[17] 	0
scalar ws10_network.node[17].content_store 	misses[17] 	0
scalar ws10_network.node[17].content_store 	decision_yes[17] 	0
scalar ws10_network.node[17].content_store 	decision_no[17] 	0
scalar ws10_network.node[17].content_store 	decision_ratio[17] 	0
scalar ws10_network.node[18].core_layer 	interests[18] 	103217
scalar ws10_network.node[18].core_layer 	repo_load[18] 	96083
scalar ws10_network.node[18].core_layer 	data[18] 	0
scalar ws10_network.node[18].content_store 	p_hit[18] 	0.069116521503241
scalar ws10_network.node[18].content_store 	hits[18] 	7134
scalar ws10_network.node[18].content_store 	misses[18] 	96083
scalar ws10_network.node[18].content_store 	decision_yes[18] 	964
scalar ws10_network.node[18].content_store 	decision_no[18] 	95119
scalar ws10_network.node[18].content_store 	decision_ratio[18] 	0.010032992308733
scalar ws10_network.node[19].core_layer 	interests[19] 	0
scalar ws10_network.node[19].core_layer 	data[19] 	0
scalar ws10_network.node[19].content_store 	p_hit[19] 	-nan
scalar ws10_network.node[19].content_store 	hits[19] 	0
scalar ws10_network.node[19].content_store 	misses[19] 	0
scalar ws10_network.node[19].content_store 	decision_yes[19] 	0
scalar ws10_network.node[19].content_store 	decision_no[19] 	0
scalar ws10_network.node[19].content_store 	decision_ratio[19] 	0
scalar ws10_network.node[20].core_layer 	interests[20] 	40058
scalar ws10_network.node[20].core_layer 	data[20] 	34714
scalar ws10_network.node[20].content_store 	p_hit[20] 	0.13338159668481
scalar ws10_network.node[20].content_store 	hits[20] 	5343
scalar ws10_network.node[20].content_store 	misses[20] 	34715
scalar ws10_network.node[20].content_store 	decision_yes[20] 	356
scalar ws10_network.node[20].content_store 	decision_no[20] 	34358
scalar ws10_network.node[20].content_store 	decision_ratio[20] 	0.010255228438094
scalar ws10_network.node[21].core_layer 	interests[21] 	0
scalar ws10_network.node[21].core_layer 	data[21] 	0
scalar ws10_network.node[21].content_store 	p_hit[21] 	-nan
scalar ws10_network.node[21].content_store 	hits[21] 	0
scalar ws10_network.node[21].content_store 	misses[21] 	0
scalar ws10_network.node[21].content_store 	decision_yes[21] 	0
scalar ws10_network.node[21].content_store 	decision_no[21] 	0
scalar ws10_network.node[21].content_store 	decision_ratio[21] 	0
scalar ws10_network.client[6] 	hdistance[6] 	2.0361133558113
scalar ws10_network.client[6] 	downloads[6] 	179435
scalar ws10_network.client[6] 	avg_time[6] 	0.007637050081
scalar ws10_network.client[6] 	interests_sent[6] 	179478
scalar ws10_network.client[10] 	hdistance[10] 	2.2034189931731
scalar ws10_network.client[10] 	downloads[10] 	180170
scalar ws10_network.client[10] 	avg_time[10] 	0.008589635678
scalar ws10_network.client[10] 	interests_sent[10] 	180211
scalar ws10_network.client[14] 	hdistance[14] 	1.6034221247952
scalar ws10_network.client[14] 	downloads[14] 	180648
scalar ws10_network.client[14] 	avg_time[14] 	0.005408618157
scalar ws10_network.client[14] 	interests_sent[14] 	180670
