version 2
run General-0-20141031-11:55:14-7934
attr D fix0.01
attr F spr
attr R lru
attr a 1
attr configname General
attr csize 1e3
attr ctlg 1e5
attr datetime 20141031-11:55:14
attr experiment General
attr inifile omnetpp.ini
attr iterationvars "$rep=17, $lambda=100, $a=1, $ctlg=1e5, $F=spr, $ttl=10, $D=fix0.01, $R=lru, $csize=1e3, $window=60, $variance=0.05, $mytime=1800, $kappa=1, $priceratiovalue=10, $pricebits=0"
attr iterationvars2 "$rep=17, $lambda=100, $a=1, $ctlg=1e5, $F=spr, $ttl=10, $D=fix0.01, $R=lru, $csize=1e3, $window=60, $variance=0.05, $mytime=1800, $kappa=1, $priceratiovalue=10, $pricebits=0, $repetition=0"
attr kappa 1
attr lambda 100
attr measurement "$rep=17, $lambda=100, $a=1, $ctlg=1e5, $F=spr, $ttl=10, $D=fix0.01, $R=lru, $csize=1e3, $window=60, $variance=0.05, $mytime=1800, $kappa=1, $priceratiovalue=10, $pricebits=0"
attr mytime 1800
attr network networks.ws${rep}_network
attr pricebits 0
attr priceratiovalue 10
attr processid 7934
attr rep 17
attr repetition 0
attr replication #0
attr resultdir results
attr runnumber 0
attr seedset 17
attr ttl 10
attr variance 0.05
attr window 60

scalar . 	a 	1
scalar . 	csize 	1e3
scalar . 	ctlg 	1e5
scalar . 	kappa 	1
scalar . 	lambda 	100
scalar . 	mytime 	1800
scalar . 	pricebits 	0
scalar . 	priceratiovalue 	10
scalar . 	rep 	17
scalar . 	ttl 	10
scalar . 	variance 	0.05
scalar . 	window 	60
scalar ws17_network.content_distribution 	repo-0 	21
scalar ws17_network.content_distribution 	repo-1 	11
scalar ws17_network.content_distribution 	repo-2 	13
scalar ws17_network.content_distribution 	client-0 	0
scalar ws17_network.content_distribution 	client-1 	5
scalar ws17_network.content_distribution 	client-2 	10
scalar ws17_network.content_distribution 	repo-0_card 	33434
scalar ws17_network.content_distribution 	repo-0_price 	10
scalar ws17_network.content_distribution 	repo-1_card 	33236
scalar ws17_network.content_distribution 	repo-1_price 	0
scalar ws17_network.content_distribution 	repo-2_card 	33330
scalar ws17_network.content_distribution 	repo-2_price 	1
scalar ws17_network.statistics 	repo_popularity[0] 	0.28775972584778
scalar ws17_network.statistics 	repo_popularity[1] 	0.38489717054386
scalar ws17_network.statistics 	repo_popularity[2] 	0.32734310360837
scalar ws17_network.statistics 	stabilization_time 	36060
scalar ws17_network.statistics 	p_hit 	0.17714885082066
scalar ws17_network.statistics 	interests 	61710.045454545
scalar ws17_network.statistics 	data 	37173.545454545
scalar ws17_network.statistics 	hdistance 	2.0698996467572
scalar ws17_network.statistics 	avg_time 	0.007849965006
scalar ws17_network.statistics 	downloads 	539691
scalar ws17_network.statistics 	total_cost 	1020952
scalar ws17_network.statistics 	total_replicas 	100000
scalar ws17_network.statistics 	inner_hit 	0.44563648458099
scalar ws17_network.statistics 	interests_sent 	539805
scalar ws17_network.node[0].core_layer 	interests[0] 	179912
scalar ws17_network.node[0].core_layer 	data[0] 	119934
scalar ws17_network.node[0].core_layer 	repo_int[0] 	299185
scalar ws17_network.node[0].content_store 	p_hit[0] 	0.33316843790297
scalar ws17_network.node[0].content_store 	hits[0] 	59941
scalar ws17_network.node[0].content_store 	misses[0] 	119971
scalar ws17_network.node[0].content_store 	decision_yes[0] 	1190
scalar ws17_network.node[0].content_store 	decision_no[0] 	118744
scalar ws17_network.node[0].content_store 	decision_ratio[0] 	0.0099221238347758
scalar ws17_network.node[1].core_layer 	interests[1] 	0
scalar ws17_network.node[1].core_layer 	data[1] 	0
scalar ws17_network.node[1].content_store 	p_hit[1] 	-nan
scalar ws17_network.node[1].content_store 	hits[1] 	0
scalar ws17_network.node[1].content_store 	misses[1] 	0
scalar ws17_network.node[1].content_store 	decision_yes[1] 	0
scalar ws17_network.node[1].content_store 	decision_no[1] 	0
scalar ws17_network.node[1].content_store 	decision_ratio[1] 	0
scalar ws17_network.node[2].core_layer 	interests[2] 	34462
scalar ws17_network.node[2].core_layer 	data[2] 	32210
scalar ws17_network.node[2].content_store 	p_hit[2] 	0.065347339098137
scalar ws17_network.node[2].content_store 	hits[2] 	2252
scalar ws17_network.node[2].content_store 	misses[2] 	32210
scalar ws17_network.node[2].content_store 	decision_yes[2] 	360
scalar ws17_network.node[2].content_store 	decision_no[2] 	31850
scalar ws17_network.node[2].content_store 	decision_ratio[2] 	0.011176653213288
scalar ws17_network.node[3].core_layer 	interests[3] 	0
scalar ws17_network.node[3].core_layer 	data[3] 	0
scalar ws17_network.node[3].content_store 	p_hit[3] 	-nan
scalar ws17_network.node[3].content_store 	hits[3] 	0
scalar ws17_network.node[3].content_store 	misses[3] 	0
scalar ws17_network.node[3].content_store 	decision_yes[3] 	0
scalar ws17_network.node[3].content_store 	decision_no[3] 	0
scalar ws17_network.node[3].content_store 	decision_ratio[3] 	0
scalar ws17_network.node[4].core_layer 	interests[4] 	0
scalar ws17_network.node[4].core_layer 	data[4] 	0
scalar ws17_network.node[4].content_store 	p_hit[4] 	-nan
scalar ws17_network.node[4].content_store 	hits[4] 	0
scalar ws17_network.node[4].content_store 	misses[4] 	0
scalar ws17_network.node[4].content_store 	decision_yes[4] 	0
scalar ws17_network.node[4].content_store 	decision_no[4] 	0
scalar ws17_network.node[4].content_store 	decision_ratio[4] 	0
scalar ws17_network.node[5].core_layer 	interests[5] 	212620
scalar ws17_network.node[5].core_layer 	data[5] 	153399
scalar ws17_network.node[5].content_store 	p_hit[5] 	0.27832753268742
scalar ws17_network.node[5].content_store 	hits[5] 	59178
scalar ws17_network.node[5].content_store 	misses[5] 	153442
scalar ws17_network.node[5].content_store 	decision_yes[5] 	1603
scalar ws17_network.node[5].content_store 	decision_no[5] 	151796
scalar ws17_network.node[5].content_store 	decision_ratio[5] 	0.01044987255458
scalar ws17_network.node[6].core_layer 	interests[6] 	80199
scalar ws17_network.node[6].core_layer 	data[6] 	73445
scalar ws17_network.node[6].content_store 	p_hit[6] 	0.084215513909151
scalar ws17_network.node[6].content_store 	hits[6] 	6754
scalar ws17_network.node[6].content_store 	misses[6] 	73445
scalar ws17_network.node[6].content_store 	decision_yes[6] 	681
scalar ws17_network.node[6].content_store 	decision_no[6] 	72764
scalar ws17_network.node[6].content_store 	decision_ratio[6] 	0.0092722445367282
scalar ws17_network.node[7].core_layer 	interests[7] 	38195
scalar ws17_network.node[7].core_layer 	data[7] 	35446
scalar ws17_network.node[7].content_store 	p_hit[7] 	0.071972771305145
scalar ws17_network.node[7].content_store 	hits[7] 	2749
scalar ws17_network.node[7].content_store 	misses[7] 	35446
scalar ws17_network.node[7].content_store 	decision_yes[7] 	367
scalar ws17_network.node[7].content_store 	decision_no[7] 	35079
scalar ws17_network.node[7].content_store 	decision_ratio[7] 	0.01035377757716
scalar ws17_network.node[8].core_layer 	interests[8] 	84223
scalar ws17_network.node[8].core_layer 	data[8] 	76720
scalar ws17_network.node[8].content_store 	p_hit[8] 	0.089084929294848
scalar ws17_network.node[8].content_store 	hits[8] 	7503
scalar ws17_network.node[8].content_store 	misses[8] 	76720
scalar ws17_network.node[8].content_store 	decision_yes[8] 	712
scalar ws17_network.node[8].content_store 	decision_no[8] 	76008
scalar ws17_network.node[8].content_store 	decision_ratio[8] 	0.0092805005213764
scalar ws17_network.node[9].core_layer 	interests[9] 	35354
scalar ws17_network.node[9].core_layer 	data[9] 	31034
scalar ws17_network.node[9].content_store 	p_hit[9] 	0.12219267975335
scalar ws17_network.node[9].content_store 	hits[9] 	4320
scalar ws17_network.node[9].content_store 	misses[9] 	31034
scalar ws17_network.node[9].content_store 	decision_yes[9] 	315
scalar ws17_network.node[9].content_store 	decision_no[9] 	30719
scalar ws17_network.node[9].content_store 	decision_ratio[9] 	0.010150157891345
scalar ws17_network.node[10].core_layer 	interests[10] 	179483
scalar ws17_network.node[10].core_layer 	data[10] 	119579
scalar ws17_network.node[10].content_store 	p_hit[10] 	0.33355248129349
scalar ws17_network.node[10].content_store 	hits[10] 	59867
scalar ws17_network.node[10].content_store 	misses[10] 	119616
scalar ws17_network.node[10].content_store 	decision_yes[10] 	1175
scalar ws17_network.node[10].content_store 	decision_no[10] 	118404
scalar ws17_network.node[10].content_store 	decision_ratio[10] 	0.0098261400413116
scalar ws17_network.node[11].core_layer 	interests[11] 	185611
scalar ws17_network.node[11].core_layer 	repo_load[11] 	107412
scalar ws17_network.node[11].core_layer 	data[11] 	69578
scalar ws17_network.node[11].content_store 	p_hit[11] 	0.046446600686382
scalar ws17_network.node[11].content_store 	hits[11] 	8621
scalar ws17_network.node[11].content_store 	misses[11] 	176990
scalar ws17_network.node[11].content_store 	decision_yes[11] 	1823
scalar ws17_network.node[11].content_store 	decision_no[11] 	175167
scalar ws17_network.node[11].content_store 	decision_ratio[11] 	0.01030001695011
scalar ws17_network.node[12].core_layer 	interests[12] 	0
scalar ws17_network.node[12].core_layer 	data[12] 	0
scalar ws17_network.node[12].content_store 	p_hit[12] 	-nan
scalar ws17_network.node[12].content_store 	hits[12] 	0
scalar ws17_network.node[12].content_store 	misses[12] 	0
scalar ws17_network.node[12].content_store 	decision_yes[12] 	0
scalar ws17_network.node[12].content_store 	decision_no[12] 	0
scalar ws17_network.node[12].content_store 	decision_ratio[12] 	0
scalar ws17_network.node[13].core_layer 	interests[13] 	109693
scalar ws17_network.node[13].core_layer 	repo_load[13] 	99642
scalar ws17_network.node[13].core_layer 	data[13] 	0
scalar ws17_network.node[13].content_store 	p_hit[13] 	0.091628453957864
scalar ws17_network.node[13].content_store 	hits[13] 	10051
scalar ws17_network.node[13].content_store 	misses[13] 	99642
scalar ws17_network.node[13].content_store 	decision_yes[13] 	968
scalar ws17_network.node[13].content_store 	decision_no[13] 	98674
scalar ws17_network.node[13].content_store 	decision_ratio[13] 	0.0097147789084924
scalar ws17_network.node[14].core_layer 	interests[14] 	79332
scalar ws17_network.node[14].core_layer 	data[14] 	72011
scalar ws17_network.node[14].content_store 	p_hit[14] 	0.092283063580901
scalar ws17_network.node[14].content_store 	hits[14] 	7321
scalar ws17_network.node[14].content_store 	misses[14] 	72011
scalar ws17_network.node[14].content_store 	decision_yes[14] 	730
scalar ws17_network.node[14].content_store 	decision_no[14] 	71281
scalar ws17_network.node[14].content_store 	decision_ratio[14] 	0.010137340128591
scalar ws17_network.node[15].core_layer 	interests[15] 	0
scalar ws17_network.node[15].core_layer 	data[15] 	0
scalar ws17_network.node[15].content_store 	p_hit[15] 	-nan
scalar ws17_network.node[15].content_store 	hits[15] 	0
scalar ws17_network.node[15].content_store 	misses[15] 	0
scalar ws17_network.node[15].content_store 	decision_yes[15] 	0
scalar ws17_network.node[15].content_store 	decision_no[15] 	0
scalar ws17_network.node[15].content_store 	decision_ratio[15] 	0
scalar ws17_network.node[16].core_layer 	interests[16] 	0
scalar ws17_network.node[16].core_layer 	data[16] 	0
scalar ws17_network.node[16].content_store 	p_hit[16] 	-nan
scalar ws17_network.node[16].content_store 	hits[16] 	0
scalar ws17_network.node[16].content_store 	misses[16] 	0
scalar ws17_network.node[16].content_store 	decision_yes[16] 	0
scalar ws17_network.node[16].content_store 	decision_no[16] 	0
scalar ws17_network.node[16].content_store 	decision_ratio[16] 	0
scalar ws17_network.node[17].core_layer 	interests[17] 	0
scalar ws17_network.node[17].core_layer 	data[17] 	0
scalar ws17_network.node[17].content_store 	p_hit[17] 	-nan
scalar ws17_network.node[17].content_store 	hits[17] 	0
scalar ws17_network.node[17].content_store 	misses[17] 	0
scalar ws17_network.node[17].content_store 	decision_yes[17] 	0
scalar ws17_network.node[17].content_store 	decision_no[17] 	0
scalar ws17_network.node[17].content_store 	decision_ratio[17] 	0
scalar ws17_network.node[18].core_layer 	interests[18] 	0
scalar ws17_network.node[18].core_layer 	data[18] 	0
scalar ws17_network.node[18].content_store 	p_hit[18] 	-nan
scalar ws17_network.node[18].content_store 	hits[18] 	0
scalar ws17_network.node[18].content_store 	misses[18] 	0
scalar ws17_network.node[18].content_store 	decision_yes[18] 	0
scalar ws17_network.node[18].content_store 	decision_no[18] 	0
scalar ws17_network.node[18].content_store 	decision_ratio[18] 	0
scalar ws17_network.node[19].core_layer 	interests[19] 	0
scalar ws17_network.node[19].core_layer 	data[19] 	0
scalar ws17_network.node[19].content_store 	p_hit[19] 	-nan
scalar ws17_network.node[19].content_store 	hits[19] 	0
scalar ws17_network.node[19].content_store 	misses[19] 	0
scalar ws17_network.node[19].content_store 	decision_yes[19] 	0
scalar ws17_network.node[19].content_store 	decision_no[19] 	0
scalar ws17_network.node[19].content_store 	decision_ratio[19] 	0
scalar ws17_network.node[20].core_layer 	interests[20] 	40602
scalar ws17_network.node[20].core_layer 	data[20] 	34462
scalar ws17_network.node[20].content_store 	p_hit[20] 	0.15122407763164
scalar ws17_network.node[20].content_store 	hits[20] 	6140
scalar ws17_network.node[20].content_store 	misses[20] 	34462
scalar ws17_network.node[20].content_store 	decision_yes[20] 	330
scalar ws17_network.node[20].content_store 	decision_no[20] 	34132
scalar ws17_network.node[20].content_store 	decision_ratio[20] 	0.0095757646102954
scalar ws17_network.node[21].core_layer 	interests[21] 	97935
scalar ws17_network.node[21].core_layer 	repo_load[21] 	92131
scalar ws17_network.node[21].core_layer 	data[21] 	0
scalar ws17_network.node[21].content_store 	p_hit[21] 	0.059263797416654
scalar ws17_network.node[21].content_store 	hits[21] 	5804
scalar ws17_network.node[21].content_store 	misses[21] 	92131
scalar ws17_network.node[21].content_store 	decision_yes[21] 	936
scalar ws17_network.node[21].content_store 	decision_no[21] 	91195
scalar ws17_network.node[21].content_store 	decision_ratio[21] 	0.010159446874559
scalar ws17_network.client[0] 	hdistance[0] 	2.3400305767894
scalar ws17_network.client[0] 	downloads[0] 	179875
scalar ws17_network.client[0] 	avg_time[0] 	0.009378073062
scalar ws17_network.client[0] 	interests_sent[0] 	179912
scalar ws17_network.client[5] 	hdistance[5] 	1.8436048123302
scalar ws17_network.client[5] 	downloads[5] 	180370
scalar ws17_network.client[5] 	avg_time[5] 	0.006556458179
scalar ws17_network.client[5] 	interests_sent[5] 	180410
scalar ws17_network.client[10] 	hdistance[10] 	2.0260635511519
scalar ws17_network.client[10] 	downloads[10] 	179446
scalar ws17_network.client[10] 	avg_time[10] 	0.007615363778
scalar ws17_network.client[10] 	interests_sent[10] 	179483
