version 2
run General-0-20141030-19:28:23-15272
attr D fix0.01
attr F spr
attr R lru
attr a 1
attr configname General
attr csize 1e3
attr ctlg 1e5
attr datetime 20141030-19:28:23
attr experiment General
attr inifile omnetpp.ini
attr iterationvars "$rep=13, $lambda=100, $a=1, $ctlg=1e5, $F=spr, $ttl=10, $D=fix0.01, $R=lru, $csize=1e3, $window=60, $variance=0.05, $mytime=1800, $kappa=1, $priceratiovalue=10, $pricebits=0"
attr iterationvars2 "$rep=13, $lambda=100, $a=1, $ctlg=1e5, $F=spr, $ttl=10, $D=fix0.01, $R=lru, $csize=1e3, $window=60, $variance=0.05, $mytime=1800, $kappa=1, $priceratiovalue=10, $pricebits=0, $repetition=0"
attr kappa 1
attr lambda 100
attr measurement "$rep=13, $lambda=100, $a=1, $ctlg=1e5, $F=spr, $ttl=10, $D=fix0.01, $R=lru, $csize=1e3, $window=60, $variance=0.05, $mytime=1800, $kappa=1, $priceratiovalue=10, $pricebits=0"
attr mytime 1800
attr network networks.ws${rep}_network
attr pricebits 0
attr priceratiovalue 10
attr processid 15272
attr rep 13
attr repetition 0
attr replication #0
attr resultdir results
attr runnumber 0
attr seedset 13
attr ttl 10
attr variance 0.05
attr window 60

scalar . 	a 	1
scalar . 	csize 	1e3
scalar . 	ctlg 	1e5
scalar . 	kappa 	1
scalar . 	lambda 	100
scalar . 	mytime 	1800
scalar . 	pricebits 	0
scalar . 	priceratiovalue 	10
scalar . 	rep 	13
scalar . 	ttl 	10
scalar . 	variance 	0.05
scalar . 	window 	60
scalar ws13_network.content_distribution 	repo-0 	6
scalar ws13_network.content_distribution 	repo-1 	7
scalar ws13_network.content_distribution 	repo-2 	5
scalar ws13_network.content_distribution 	client-0 	18
scalar ws13_network.content_distribution 	client-1 	1
scalar ws13_network.content_distribution 	client-2 	12
scalar ws13_network.content_distribution 	repo-0_card 	33148
scalar ws13_network.content_distribution 	repo-0_price 	0
scalar ws13_network.content_distribution 	repo-1_card 	33483
scalar ws13_network.content_distribution 	repo-1_price 	1
scalar ws13_network.content_distribution 	repo-2_card 	33369
scalar ws13_network.content_distribution 	repo-2_price 	10
scalar ws13_network.statistics 	repo_popularity[0] 	0.3357648681557
scalar ws13_network.statistics 	repo_popularity[1] 	0.38046139947857
scalar ws13_network.statistics 	repo_popularity[2] 	0.28377373236574
scalar ws13_network.statistics 	stabilization_time 	36060
scalar ws13_network.statistics 	p_hit 	0.17674151971406
scalar ws13_network.statistics 	interests 	64463.681818182
scalar ws13_network.statistics 	data 	39936.090909091
scalar ws13_network.statistics 	hdistance 	2.1639918886862
scalar ws13_network.statistics 	avg_time 	0.008435309278
scalar ws13_network.statistics 	downloads 	539482
scalar ws13_network.statistics 	total_cost 	1027772
scalar ws13_network.statistics 	total_replicas 	100000
scalar ws13_network.statistics 	inner_hit 	0.46466239837474
scalar ws13_network.statistics 	interests_sent 	539612
scalar ws13_network.node[0].core_layer 	interests[0] 	33256
scalar ws13_network.node[0].core_layer 	data[0] 	31164
scalar ws13_network.node[0].core_layer 	repo_int[0] 	288805
scalar ws13_network.node[0].content_store 	p_hit[0] 	0.062905941784941
scalar ws13_network.node[0].content_store 	hits[0] 	2092
scalar ws13_network.node[0].content_store 	misses[0] 	31164
scalar ws13_network.node[0].content_store 	decision_yes[0] 	291
scalar ws13_network.node[0].content_store 	decision_no[0] 	30873
scalar ws13_network.node[0].content_store 	decision_ratio[0] 	0.0093376973430882
scalar ws13_network.node[1].core_layer 	interests[1] 	180036
scalar ws13_network.node[1].core_layer 	data[1] 	121132
scalar ws13_network.node[1].content_store 	p_hit[1] 	0.32687351418605
scalar ws13_network.node[1].content_store 	hits[1] 	58849
scalar ws13_network.node[1].content_store 	misses[1] 	121187
scalar ws13_network.node[1].content_store 	decision_yes[1] 	1246
scalar ws13_network.node[1].content_store 	decision_no[1] 	119886
scalar ws13_network.node[1].content_store 	decision_ratio[1] 	0.0102862992438
scalar ws13_network.node[2].core_layer 	interests[2] 	41297
scalar ws13_network.node[2].core_layer 	data[2] 	35341
scalar ws13_network.node[2].content_store 	p_hit[2] 	0.14424776618156
scalar ws13_network.node[2].content_store 	hits[2] 	5957
scalar ws13_network.node[2].content_store 	misses[2] 	35340
scalar ws13_network.node[2].content_store 	decision_yes[2] 	345
scalar ws13_network.node[2].content_store 	decision_no[2] 	34996
scalar ws13_network.node[2].content_store 	decision_ratio[2] 	0.0097620327664752
scalar ws13_network.node[3].core_layer 	interests[3] 	158628
scalar ws13_network.node[3].core_layer 	data[3] 	145453
scalar ws13_network.node[3].content_store 	p_hit[3] 	0.082942481781274
scalar ws13_network.node[3].content_store 	hits[3] 	13157
scalar ws13_network.node[3].content_store 	misses[3] 	145471
scalar ws13_network.node[3].content_store 	decision_yes[3] 	1492
scalar ws13_network.node[3].content_store 	decision_no[3] 	143961
scalar ws13_network.node[3].content_store 	decision_ratio[3] 	0.010257608987095
scalar ws13_network.node[4].core_layer 	interests[4] 	145452
scalar ws13_network.node[4].core_layer 	data[4] 	137662
scalar ws13_network.node[4].content_store 	p_hit[4] 	0.053557187250777
scalar ws13_network.node[4].content_store 	hits[4] 	7790
scalar ws13_network.node[4].content_store 	misses[4] 	137662
scalar ws13_network.node[4].content_store 	decision_yes[4] 	1413
scalar ws13_network.node[4].content_store 	decision_no[4] 	136249
scalar ws13_network.node[4].content_store 	decision_ratio[4] 	0.010264270459531
scalar ws13_network.node[5].core_layer 	interests[5] 	98516
scalar ws13_network.node[5].core_layer 	repo_load[5] 	93279
scalar ws13_network.node[5].core_layer 	data[5] 	0
scalar ws13_network.node[5].content_store 	p_hit[5] 	0.053158877745747
scalar ws13_network.node[5].content_store 	hits[5] 	5237
scalar ws13_network.node[5].content_store 	misses[5] 	93279
scalar ws13_network.node[5].content_store 	decision_yes[5] 	999
scalar ws13_network.node[5].content_store 	decision_no[5] 	92280
scalar ws13_network.node[5].content_store 	decision_ratio[5] 	0.010709806065674
scalar ws13_network.node[6].core_layer 	interests[6] 	110132
scalar ws13_network.node[6].core_layer 	repo_load[6] 	100544
scalar ws13_network.node[6].core_layer 	data[6] 	0
scalar ws13_network.node[6].content_store 	p_hit[6] 	0.087059165365198
scalar ws13_network.node[6].content_store 	hits[6] 	9588
scalar ws13_network.node[6].content_store 	misses[6] 	100544
scalar ws13_network.node[6].content_store 	decision_yes[6] 	1014
scalar ws13_network.node[6].content_store 	decision_no[6] 	99530
scalar ws13_network.node[6].content_store 	decision_ratio[6] 	0.010085136855506
scalar ws13_network.node[7].core_layer 	interests[7] 	100620
scalar ws13_network.node[7].core_layer 	repo_load[7] 	94982
scalar ws13_network.node[7].core_layer 	data[7] 	0
scalar ws13_network.node[7].content_store 	p_hit[7] 	0.056032597893063
scalar ws13_network.node[7].content_store 	hits[7] 	5638
scalar ws13_network.node[7].content_store 	misses[7] 	94982
scalar ws13_network.node[7].content_store 	decision_yes[7] 	953
scalar ws13_network.node[7].content_store 	decision_no[7] 	94029
scalar ws13_network.node[7].content_store 	decision_ratio[7] 	0.010033480027795
scalar ws13_network.node[8].core_layer 	interests[8] 	35083
scalar ws13_network.node[8].core_layer 	data[8] 	32619
scalar ws13_network.node[8].content_store 	p_hit[8] 	0.070233446398541
scalar ws13_network.node[8].content_store 	hits[8] 	2464
scalar ws13_network.node[8].content_store 	misses[8] 	32619
scalar ws13_network.node[8].content_store 	decision_yes[8] 	331
scalar ws13_network.node[8].content_store 	decision_no[8] 	32288
scalar ws13_network.node[8].content_store 	decision_ratio[8] 	0.010147460069285
scalar ws13_network.node[9].core_layer 	interests[9] 	40886
scalar ws13_network.node[9].core_layer 	data[9] 	35082
scalar ws13_network.node[9].content_store 	p_hit[9] 	0.14193122340165
scalar ws13_network.node[9].content_store 	hits[9] 	5803
scalar ws13_network.node[9].content_store 	misses[9] 	35083
scalar ws13_network.node[9].content_store 	decision_yes[9] 	348
scalar ws13_network.node[9].content_store 	decision_no[9] 	34734
scalar ws13_network.node[9].content_store 	decision_ratio[9] 	0.0099196168975543
scalar ws13_network.node[10].core_layer 	interests[10] 	0
scalar ws13_network.node[10].core_layer 	data[10] 	0
scalar ws13_network.node[10].content_store 	p_hit[10] 	-nan
scalar ws13_network.node[10].content_store 	hits[10] 	0
scalar ws13_network.node[10].content_store 	misses[10] 	0
scalar ws13_network.node[10].content_store 	decision_yes[10] 	0
scalar ws13_network.node[10].content_store 	decision_no[10] 	0
scalar ws13_network.node[10].content_store 	decision_ratio[10] 	0
scalar ws13_network.node[11].core_layer 	interests[11] 	38924
scalar ws13_network.node[11].core_layer 	data[11] 	33256
scalar ws13_network.node[11].content_store 	p_hit[11] 	0.14561709998972
scalar ws13_network.node[11].content_store 	hits[11] 	5668
scalar ws13_network.node[11].content_store 	misses[11] 	33256
scalar ws13_network.node[11].content_store 	decision_yes[11] 	341
scalar ws13_network.node[11].content_store 	decision_no[11] 	32915
scalar ws13_network.node[11].content_store 	decision_ratio[11] 	0.010253788789993
scalar ws13_network.node[12].core_layer 	interests[12] 	179895
scalar ws13_network.node[12].core_layer 	data[12] 	119632
scalar ws13_network.node[12].content_store 	p_hit[12] 	0.33480085605492
scalar ws13_network.node[12].content_store 	hits[12] 	60229
scalar ws13_network.node[12].content_store 	misses[12] 	119666
scalar ws13_network.node[12].content_store 	decision_yes[12] 	1199
scalar ws13_network.node[12].content_store 	decision_no[12] 	118433
scalar ws13_network.node[12].content_store 	decision_ratio[12] 	0.010022402032901
scalar ws13_network.node[13].core_layer 	interests[13] 	0
scalar ws13_network.node[13].core_layer 	data[13] 	0
scalar ws13_network.node[13].content_store 	p_hit[13] 	-nan
scalar ws13_network.node[13].content_store 	hits[13] 	0
scalar ws13_network.node[13].content_store 	misses[13] 	0
scalar ws13_network.node[13].content_store 	decision_yes[13] 	0
scalar ws13_network.node[13].content_store 	decision_no[13] 	0
scalar ws13_network.node[13].content_store 	decision_ratio[13] 	0
scalar ws13_network.node[14].core_layer 	interests[14] 	0
scalar ws13_network.node[14].core_layer 	data[14] 	0
scalar ws13_network.node[14].content_store 	p_hit[14] 	-nan
scalar ws13_network.node[14].content_store 	hits[14] 	0
scalar ws13_network.node[14].content_store 	misses[14] 	0
scalar ws13_network.node[14].content_store 	decision_yes[14] 	0
scalar ws13_network.node[14].content_store 	decision_no[14] 	0
scalar ws13_network.node[14].content_store 	decision_ratio[14] 	0
scalar ws13_network.node[15].core_layer 	interests[15] 	40455
scalar ws13_network.node[15].core_layer 	data[15] 	35348
scalar ws13_network.node[15].content_store 	p_hit[15] 	0.12623903102212
scalar ws13_network.node[15].content_store 	hits[15] 	5107
scalar ws13_network.node[15].content_store 	misses[15] 	35348
scalar ws13_network.node[15].content_store 	decision_yes[15] 	347
scalar ws13_network.node[15].content_store 	decision_no[15] 	35001
scalar ws13_network.node[15].content_store 	decision_ratio[15] 	0.0098166798687337
scalar ws13_network.node[16].core_layer 	interests[16] 	0
scalar ws13_network.node[16].core_layer 	data[16] 	0
scalar ws13_network.node[16].content_store 	p_hit[16] 	-nan
scalar ws13_network.node[16].content_store 	hits[16] 	0
scalar ws13_network.node[16].content_store 	misses[16] 	0
scalar ws13_network.node[16].content_store 	decision_yes[16] 	0
scalar ws13_network.node[16].content_store 	decision_no[16] 	0
scalar ws13_network.node[16].content_store 	decision_ratio[16] 	0
scalar ws13_network.node[17].core_layer 	interests[17] 	35340
scalar ws13_network.node[17].core_layer 	data[17] 	32654
scalar ws13_network.node[17].content_store 	p_hit[17] 	0.076032823995473
scalar ws13_network.node[17].content_store 	hits[17] 	2687
scalar ws13_network.node[17].content_store 	misses[17] 	32653
scalar ws13_network.node[17].content_store 	decision_yes[17] 	327
scalar ws13_network.node[17].content_store 	decision_no[17] 	32327
scalar ws13_network.node[17].content_store 	decision_ratio[17] 	0.010014087094996
scalar ws13_network.node[18].core_layer 	interests[18] 	179681
scalar ws13_network.node[18].core_layer 	data[18] 	119251
scalar ws13_network.node[18].content_store 	p_hit[18] 	0.33609007073647
scalar ws13_network.node[18].content_store 	hits[18] 	60389
scalar ws13_network.node[18].content_store 	misses[18] 	119292
scalar ws13_network.node[18].content_store 	decision_yes[18] 	1225
scalar ws13_network.node[18].content_store 	decision_no[18] 	118026
scalar ws13_network.node[18].content_store 	decision_ratio[18] 	0.010272450545488
scalar ws13_network.node[19].core_layer 	interests[19] 	0
scalar ws13_network.node[19].core_layer 	data[19] 	0
scalar ws13_network.node[19].content_store 	p_hit[19] 	-nan
scalar ws13_network.node[19].content_store 	hits[19] 	0
scalar ws13_network.node[19].content_store 	misses[19] 	0
scalar ws13_network.node[19].content_store 	decision_yes[19] 	0
scalar ws13_network.node[19].content_store 	decision_no[19] 	0
scalar ws13_network.node[19].content_store 	decision_ratio[19] 	0
scalar ws13_network.node[20].core_layer 	interests[20] 	0
scalar ws13_network.node[20].core_layer 	data[20] 	0
scalar ws13_network.node[20].content_store 	p_hit[20] 	-nan
scalar ws13_network.node[20].content_store 	hits[20] 	0
scalar ws13_network.node[20].content_store 	misses[20] 	0
scalar ws13_network.node[20].content_store 	decision_yes[20] 	0
scalar ws13_network.node[20].content_store 	decision_no[20] 	0
scalar ws13_network.node[20].content_store 	decision_ratio[20] 	0
scalar ws13_network.node[21].core_layer 	interests[21] 	0
scalar ws13_network.node[21].core_layer 	data[21] 	0
scalar ws13_network.node[21].content_store 	p_hit[21] 	-nan
scalar ws13_network.node[21].content_store 	hits[21] 	0
scalar ws13_network.node[21].content_store 	misses[21] 	0
scalar ws13_network.node[21].content_store 	decision_yes[21] 	0
scalar ws13_network.node[21].content_store 	decision_no[21] 	0
scalar ws13_network.node[21].content_store 	decision_ratio[21] 	0
scalar ws13_network.client[1] 	hdistance[1] 	2.3687055855896
scalar ws13_network.client[1] 	downloads[1] 	179981
scalar ws13_network.client[1] 	avg_time[1] 	0.009526969211
scalar ws13_network.client[1] 	interests_sent[1] 	180036
scalar ws13_network.client[12] 	hdistance[12] 	1.9355780297007
scalar ws13_network.client[12] 	downloads[12] 	179861
scalar ws13_network.client[12] 	avg_time[12] 	0.00725006304
scalar ws13_network.client[12] 	interests_sent[12] 	179895
scalar ws13_network.client[18] 	hdistance[18] 	2.1876920507682
scalar ws13_network.client[18] 	downloads[18] 	179640
scalar ws13_network.client[18] 	avg_time[18] 	0.008528895585
scalar ws13_network.client[18] 	interests_sent[18] 	179681
