version 2
run General-0-20141030-18:28:45-22409
attr D fix0.01
attr F spr
attr R lru
attr a 1
attr configname General
attr csize 1e3
attr ctlg 1e5
attr datetime 20141030-18:28:45
attr experiment General
attr inifile omnetpp.ini
attr iterationvars "$rep=1, $lambda=100, $a=1, $ctlg=1e5, $F=spr, $ttl=10, $D=fix0.01, $R=lru, $csize=1e3, $window=60, $variance=0.05, $mytime=1800, $kappa=1, $priceratiovalue=10, $pricebits=0"
attr iterationvars2 "$rep=1, $lambda=100, $a=1, $ctlg=1e5, $F=spr, $ttl=10, $D=fix0.01, $R=lru, $csize=1e3, $window=60, $variance=0.05, $mytime=1800, $kappa=1, $priceratiovalue=10, $pricebits=0, $repetition=0"
attr kappa 1
attr lambda 100
attr measurement "$rep=1, $lambda=100, $a=1, $ctlg=1e5, $F=spr, $ttl=10, $D=fix0.01, $R=lru, $csize=1e3, $window=60, $variance=0.05, $mytime=1800, $kappa=1, $priceratiovalue=10, $pricebits=0"
attr mytime 1800
attr network networks.ws${rep}_network
attr pricebits 0
attr priceratiovalue 10
attr processid 22409
attr rep 1
attr repetition 0
attr replication #0
attr resultdir results
attr runnumber 0
attr seedset 1
attr ttl 10
attr variance 0.05
attr window 60

scalar . 	a 	1
scalar . 	csize 	1e3
scalar . 	ctlg 	1e5
scalar . 	kappa 	1
scalar . 	lambda 	100
scalar . 	mytime 	1800
scalar . 	pricebits 	0
scalar . 	priceratiovalue 	10
scalar . 	rep 	1
scalar . 	ttl 	10
scalar . 	variance 	0.05
scalar . 	window 	60
scalar ws1_network.content_distribution 	repo-0 	14
scalar ws1_network.content_distribution 	repo-1 	5
scalar ws1_network.content_distribution 	repo-2 	1
scalar ws1_network.content_distribution 	client-0 	8
scalar ws1_network.content_distribution 	client-1 	18
scalar ws1_network.content_distribution 	client-2 	9
scalar ws1_network.content_distribution 	repo-0_card 	33398
scalar ws1_network.content_distribution 	repo-0_price 	0
scalar ws1_network.content_distribution 	repo-1_card 	33040
scalar ws1_network.content_distribution 	repo-1_price 	1
scalar ws1_network.content_distribution 	repo-2_card 	33562
scalar ws1_network.content_distribution 	repo-2_price 	10
scalar ws1_network.statistics 	repo_popularity[0] 	0.42710281340035
scalar ws1_network.statistics 	repo_popularity[1] 	0.27050451919503
scalar ws1_network.statistics 	repo_popularity[2] 	0.30239266740463
scalar ws1_network.statistics 	stabilization_time 	36060
scalar ws1_network.statistics 	p_hit 	0.17970315800878
scalar ws1_network.statistics 	interests 	60417.818181818
scalar ws1_network.statistics 	data 	35915.181818182
scalar ws1_network.statistics 	hdistance 	2.0230348018189
scalar ws1_network.statistics 	avg_time 	0.007594500627
scalar ws1_network.statistics 	downloads 	538945
scalar ws1_network.statistics 	total_cost 	1076954
scalar ws1_network.statistics 	total_replicas 	100000
scalar ws1_network.statistics 	inner_hit 	0.44320663518541
scalar ws1_network.statistics 	interests_sent 	539054
scalar ws1_network.node[0].core_layer 	interests[0] 	0
scalar ws1_network.node[0].core_layer 	data[0] 	0
scalar ws1_network.node[0].core_layer 	repo_int[0] 	300081
scalar ws1_network.node[0].content_store 	p_hit[0] 	-nan
scalar ws1_network.node[0].content_store 	hits[0] 	0
scalar ws1_network.node[0].content_store 	misses[0] 	0
scalar ws1_network.node[0].content_store 	decision_yes[0] 	0
scalar ws1_network.node[0].content_store 	decision_no[0] 	0
scalar ws1_network.node[0].content_store 	decision_ratio[0] 	0
scalar ws1_network.node[1].core_layer 	interests[1] 	105936
scalar ws1_network.node[1].core_layer 	repo_load[1] 	97502
scalar ws1_network.node[1].core_layer 	data[1] 	0
scalar ws1_network.node[1].content_store 	p_hit[1] 	0.079614106630418
scalar ws1_network.node[1].content_store 	hits[1] 	8434
scalar ws1_network.node[1].content_store 	misses[1] 	97502
scalar ws1_network.node[1].content_store 	decision_yes[1] 	1015
scalar ws1_network.node[1].content_store 	decision_no[1] 	96487
scalar ws1_network.node[1].content_store 	decision_ratio[1] 	0.010410042870915
scalar ws1_network.node[2].core_layer 	interests[2] 	37374
scalar ws1_network.node[2].core_layer 	data[2] 	34069
scalar ws1_network.node[2].content_store 	p_hit[2] 	0.088430459677851
scalar ws1_network.node[2].content_store 	hits[2] 	3305
scalar ws1_network.node[2].content_store 	misses[2] 	34069
scalar ws1_network.node[2].content_store 	decision_yes[2] 	338
scalar ws1_network.node[2].content_store 	decision_no[2] 	33731
scalar ws1_network.node[2].content_store 	decision_ratio[2] 	0.0099210425900379
scalar ws1_network.node[3].core_layer 	interests[3] 	39689
scalar ws1_network.node[3].core_layer 	data[3] 	34483
scalar ws1_network.node[3].content_store 	p_hit[3] 	0.13114464965104
scalar ws1_network.node[3].content_store 	hits[3] 	5205
scalar ws1_network.node[3].content_store 	misses[3] 	34484
scalar ws1_network.node[3].content_store 	decision_yes[3] 	358
scalar ws1_network.node[3].content_store 	decision_no[3] 	34125
scalar ws1_network.node[3].content_store 	decision_ratio[3] 	0.010381927326509
scalar ws1_network.node[4].core_layer 	interests[4] 	119231
scalar ws1_network.node[4].core_layer 	data[4] 	112470
scalar ws1_network.node[4].content_store 	p_hit[4] 	0.056713438619151
scalar ws1_network.node[4].content_store 	hits[4] 	6762
scalar ws1_network.node[4].content_store 	misses[4] 	112469
scalar ws1_network.node[4].content_store 	decision_yes[4] 	1089
scalar ws1_network.node[4].content_store 	decision_no[4] 	111381
scalar ws1_network.node[4].content_store 	decision_ratio[4] 	0.0096825820218725
scalar ws1_network.node[5].core_layer 	interests[5] 	184390
scalar ws1_network.node[5].core_layer 	repo_load[5] 	101934
scalar ws1_network.node[5].core_layer 	data[5] 	72388
scalar ws1_network.node[5].content_store 	p_hit[5] 	0.05457454308802
scalar ws1_network.node[5].content_store 	hits[5] 	10063
scalar ws1_network.node[5].content_store 	misses[5] 	174327
scalar ws1_network.node[5].content_store 	decision_yes[5] 	1748
scalar ws1_network.node[5].content_store 	decision_no[5] 	172574
scalar ws1_network.node[5].content_store 	decision_ratio[5] 	0.010027420520646
scalar ws1_network.node[6].core_layer 	interests[6] 	0
scalar ws1_network.node[6].core_layer 	data[6] 	0
scalar ws1_network.node[6].content_store 	p_hit[6] 	-nan
scalar ws1_network.node[6].content_store 	hits[6] 	0
scalar ws1_network.node[6].content_store 	misses[6] 	0
scalar ws1_network.node[6].content_store 	decision_yes[6] 	0
scalar ws1_network.node[6].content_store 	decision_no[6] 	0
scalar ws1_network.node[6].content_store 	decision_ratio[6] 	0
scalar ws1_network.node[7].core_layer 	interests[7] 	79645
scalar ws1_network.node[7].core_layer 	data[7] 	73116
scalar ws1_network.node[7].content_store 	p_hit[7] 	0.0819511582648
scalar ws1_network.node[7].content_store 	hits[7] 	6527
scalar ws1_network.node[7].content_store 	misses[7] 	73118
scalar ws1_network.node[7].content_store 	decision_yes[7] 	704
scalar ws1_network.node[7].content_store 	decision_no[7] 	72412
scalar ws1_network.node[7].content_store 	decision_ratio[7] 	0.0096285354778708
scalar ws1_network.node[8].core_layer 	interests[8] 	179817
scalar ws1_network.node[8].core_layer 	data[8] 	119545
scalar ws1_network.node[8].content_store 	p_hit[8] 	0.33499613495943
scalar ws1_network.node[8].content_store 	hits[8] 	60238
scalar ws1_network.node[8].content_store 	misses[8] 	119579
scalar ws1_network.node[8].content_store 	decision_yes[8] 	1217
scalar ws1_network.node[8].content_store 	decision_no[8] 	118328
scalar ws1_network.node[8].content_store 	decision_ratio[8] 	0.010180266845121
scalar ws1_network.node[9].core_layer 	interests[9] 	179451
scalar ws1_network.node[9].core_layer 	data[9] 	119232
scalar ws1_network.node[9].content_store 	p_hit[9] 	0.33530044413238
scalar ws1_network.node[9].content_store 	hits[9] 	60170
scalar ws1_network.node[9].content_store 	misses[9] 	119281
scalar ws1_network.node[9].content_store 	decision_yes[9] 	1166
scalar ws1_network.node[9].content_store 	decision_no[9] 	118066
scalar ws1_network.node[9].content_store 	decision_ratio[9] 	0.0097792538915727
scalar ws1_network.node[10].core_layer 	interests[10] 	0
scalar ws1_network.node[10].core_layer 	data[10] 	0
scalar ws1_network.node[10].content_store 	p_hit[10] 	-nan
scalar ws1_network.node[10].content_store 	hits[10] 	0
scalar ws1_network.node[10].content_store 	misses[10] 	0
scalar ws1_network.node[10].content_store 	decision_yes[10] 	0
scalar ws1_network.node[10].content_store 	decision_no[10] 	0
scalar ws1_network.node[10].content_store 	decision_ratio[10] 	0
scalar ws1_network.node[11].core_layer 	interests[11] 	0
scalar ws1_network.node[11].core_layer 	data[11] 	0
scalar ws1_network.node[11].content_store 	p_hit[11] 	-nan
scalar ws1_network.node[11].content_store 	hits[11] 	0
scalar ws1_network.node[11].content_store 	misses[11] 	0
scalar ws1_network.node[11].content_store 	decision_yes[11] 	0
scalar ws1_network.node[11].content_store 	decision_no[11] 	0
scalar ws1_network.node[11].content_store 	decision_ratio[11] 	0
scalar ws1_network.node[12].core_layer 	interests[12] 	0
scalar ws1_network.node[12].core_layer 	data[12] 	0
scalar ws1_network.node[12].content_store 	p_hit[12] 	-nan
scalar ws1_network.node[12].content_store 	hits[12] 	0
scalar ws1_network.node[12].content_store 	misses[12] 	0
scalar ws1_network.node[12].content_store 	decision_yes[12] 	0
scalar ws1_network.node[12].content_store 	decision_no[12] 	0
scalar ws1_network.node[12].content_store 	decision_ratio[12] 	0
scalar ws1_network.node[13].core_layer 	interests[13] 	0
scalar ws1_network.node[13].core_layer 	data[13] 	0
scalar ws1_network.node[13].content_store 	p_hit[13] 	-nan
scalar ws1_network.node[13].content_store 	hits[13] 	0
scalar ws1_network.node[13].content_store 	misses[13] 	0
scalar ws1_network.node[13].content_store 	decision_yes[13] 	0
scalar ws1_network.node[13].content_store 	decision_no[13] 	0
scalar ws1_network.node[13].content_store 	decision_ratio[13] 	0
scalar ws1_network.node[14].core_layer 	interests[14] 	109407
scalar ws1_network.node[14].core_layer 	repo_load[14] 	100645
scalar ws1_network.node[14].core_layer 	data[14] 	0
scalar ws1_network.node[14].content_store 	p_hit[14] 	0.080086283327392
scalar ws1_network.node[14].content_store 	hits[14] 	8762
scalar ws1_network.node[14].content_store 	misses[14] 	100645
scalar ws1_network.node[14].content_store 	decision_yes[14] 	1017
scalar ws1_network.node[14].content_store 	decision_no[14] 	99628
scalar ws1_network.node[14].content_store 	decision_ratio[14] 	0.010104823885936
scalar ws1_network.node[15].core_layer 	interests[15] 	0
scalar ws1_network.node[15].core_layer 	data[15] 	0
scalar ws1_network.node[15].content_store 	p_hit[15] 	-nan
scalar ws1_network.node[15].content_store 	hits[15] 	0
scalar ws1_network.node[15].content_store 	misses[15] 	0
scalar ws1_network.node[15].content_store 	decision_yes[15] 	0
scalar ws1_network.node[15].content_store 	decision_no[15] 	0
scalar ws1_network.node[15].content_store 	decision_ratio[15] 	0
scalar ws1_network.node[16].core_layer 	interests[16] 	34484
scalar ws1_network.node[16].core_layer 	data[16] 	31966
scalar ws1_network.node[16].content_store 	p_hit[16] 	0.072990372346596
scalar ws1_network.node[16].content_store 	hits[16] 	2517
scalar ws1_network.node[16].content_store 	misses[16] 	31967
scalar ws1_network.node[16].content_store 	decision_yes[16] 	321
scalar ws1_network.node[16].content_store 	decision_no[16] 	31645
scalar ws1_network.node[16].content_store 	decision_ratio[16] 	0.010041919539511
scalar ws1_network.node[17].core_layer 	interests[17] 	79982
scalar ws1_network.node[17].core_layer 	data[17] 	73195
scalar ws1_network.node[17].content_store 	p_hit[17] 	0.084856592733365
scalar ws1_network.node[17].content_store 	hits[17] 	6787
scalar ws1_network.node[17].content_store 	misses[17] 	73195
scalar ws1_network.node[17].content_store 	decision_yes[17] 	733
scalar ws1_network.node[17].content_store 	decision_no[17] 	72462
scalar ws1_network.node[17].content_store 	decision_ratio[17] 	0.010014345242161
scalar ws1_network.node[18].core_layer 	interests[18] 	179786
scalar ws1_network.node[18].core_layer 	data[18] 	119670
scalar ws1_network.node[18].content_store 	p_hit[18] 	0.33423069649472
scalar ws1_network.node[18].content_store 	hits[18] 	60090
scalar ws1_network.node[18].content_store 	misses[18] 	119696
scalar ws1_network.node[18].content_store 	decision_yes[18] 	1142
scalar ws1_network.node[18].content_store 	decision_no[18] 	118528
scalar ws1_network.node[18].content_store 	decision_ratio[18] 	0.0095429096682544
scalar ws1_network.node[19].core_layer 	interests[19] 	0
scalar ws1_network.node[19].core_layer 	data[19] 	0
scalar ws1_network.node[19].content_store 	p_hit[19] 	-nan
scalar ws1_network.node[19].content_store 	hits[19] 	0
scalar ws1_network.node[19].content_store 	misses[19] 	0
scalar ws1_network.node[19].content_store 	decision_yes[19] 	0
scalar ws1_network.node[19].content_store 	decision_no[19] 	0
scalar ws1_network.node[19].content_store 	decision_ratio[19] 	0
scalar ws1_network.node[20].core_layer 	interests[20] 	0
scalar ws1_network.node[20].core_layer 	data[20] 	0
scalar ws1_network.node[20].content_store 	p_hit[20] 	-nan
scalar ws1_network.node[20].content_store 	hits[20] 	0
scalar ws1_network.node[20].content_store 	misses[20] 	0
scalar ws1_network.node[20].content_store 	decision_yes[20] 	0
scalar ws1_network.node[20].content_store 	decision_no[20] 	0
scalar ws1_network.node[20].content_store 	decision_ratio[20] 	0
scalar ws1_network.node[21].core_layer 	interests[21] 	0
scalar ws1_network.node[21].core_layer 	data[21] 	0
scalar ws1_network.node[21].content_store 	p_hit[21] 	-nan
scalar ws1_network.node[21].content_store 	hits[21] 	0
scalar ws1_network.node[21].content_store 	misses[21] 	0
scalar ws1_network.node[21].content_store 	decision_yes[21] 	0
scalar ws1_network.node[21].content_store 	decision_no[21] 	0
scalar ws1_network.node[21].content_store 	decision_ratio[21] 	0
scalar ws1_network.client[8] 	hdistance[8] 	1.8384274375219
scalar ws1_network.client[8] 	downloads[8] 	179783
scalar ws1_network.client[8] 	avg_time[8] 	0.006580106234
scalar ws1_network.client[8] 	interests_sent[8] 	179817
scalar ws1_network.client[9] 	hdistance[9] 	2.2415970836446
scalar ws1_network.client[9] 	downloads[9] 	179402
scalar ws1_network.client[9] 	avg_time[9] 	0.008731532306
scalar ws1_network.client[9] 	interests_sent[9] 	179451
scalar ws1_network.client[18] 	hdistance[18] 	1.9890798842902
scalar ws1_network.client[18] 	downloads[18] 	179760
scalar ws1_network.client[18] 	avg_time[18] 	0.007471863342
scalar ws1_network.client[18] 	interests_sent[18] 	179786
