version 2
run General-1-20150617-11:19:30-27359
attr D lcd
attr F spr
attr R lru
attr a 1
attr configname General
attr datetime 20150617-11:19:30
attr experiment General
attr inifile omnetpp.ini
attr iterationvars "$net=abilene, $rep=0, $a=1, $F=spr, $ttl=1000, $D=lcd, $R=lru, $window=60, $variance=0.05, $mytime=180"
attr iterationvars2 "$net=abilene, $rep=0, $a=1, $F=spr, $ttl=1000, $D=lcd, $R=lru, $window=60, $variance=0.05, $mytime=180, $repetition=0"
attr measurement "$net=abilene, $rep=0, $a=1, $F=spr, $ttl=1000, $D=lcd, $R=lru, $window=60, $variance=0.05, $mytime=180"
attr mytime 180
attr net abilene
attr network networks.${net=abilene}_network
attr processid 27359
attr rep 0
attr repetition 0
attr replication #0
attr resultdir results
attr runnumber 1
attr seedset 0
attr ttl 1000
attr variance 0.05
attr window 60

scalar . 	a 	1
scalar . 	mytime 	180
scalar . 	rep 	0
scalar . 	ttl 	1000
scalar . 	variance 	0.05
scalar . 	window 	60
scalar abilene_network.content_distribution 	repo-0 	5
scalar abilene_network.content_distribution 	client-0 	8
scalar abilene_network.content_distribution 	client-1 	9
scalar abilene_network.content_distribution 	client-2 	5
scalar abilene_network.content_distribution 	client-3 	0
scalar abilene_network.content_distribution 	client-4 	1
scalar abilene_network.content_distribution 	client-5 	7
scalar abilene_network.content_distribution 	client-6 	6
scalar abilene_network.content_distribution 	client-7 	2
scalar abilene_network.content_distribution 	client-8 	4
scalar abilene_network.content_distribution 	client-9 	10
scalar abilene_network.content_distribution 	client-10 	3
scalar abilene_network.content_distribution 	repo-0_card 	1000
scalar abilene_network.content_distribution 	repo-0_price 	0
scalar abilene_network.statistics 	stabilization_time 	63
scalar abilene_network.statistics 	p_hit 	0.13973401591029
scalar abilene_network.statistics 	interests 	47733.545454545
scalar abilene_network.statistics 	data 	29729.363636364
scalar abilene_network.statistics 	hdistance 	2.3020787352536
scalar abilene_network.statistics 	avg_time 	0.009405467356
scalar abilene_network.statistics 	downloads 	197404
scalar abilene_network.statistics 	total_cost 	0
scalar abilene_network.statistics 	total_replicas 	1000
scalar abilene_network.statistics 	inner_hit 	0.37820408907621
scalar abilene_network.node[0].core_layer 	interests[0] 	17980
scalar abilene_network.node[0].core_layer 	data[0] 	11204
scalar abilene_network.node[0].core_layer 	repo_int[0] 	122745
scalar abilene_network.node[0].content_store 	p_hit[0] 	0.37152391546162
scalar abilene_network.node[0].content_store 	hits[0] 	6680
scalar abilene_network.node[0].content_store 	misses[0] 	11300
scalar abilene_network.node[0].content_store 	decision_yes[0] 	492
scalar abilene_network.node[0].content_store 	decision_no[0] 	10712
scalar abilene_network.node[0].content_store 	decision_ratio[0] 	0.043912888254195
scalar abilene_network.node[1].core_layer 	interests[1] 	40361
scalar abilene_network.node[1].core_layer 	data[1] 	32571
scalar abilene_network.node[1].content_store 	p_hit[1] 	0.1831223210525
scalar abilene_network.node[1].content_store 	hits[1] 	7391
scalar abilene_network.node[1].content_store 	misses[1] 	32970
scalar abilene_network.node[1].content_store 	decision_yes[1] 	1064
scalar abilene_network.node[1].content_store 	decision_no[1] 	31507
scalar abilene_network.node[1].content_store 	decision_ratio[1] 	0.032667096496884
scalar abilene_network.node[2].core_layer 	interests[2] 	50644
scalar abilene_network.node[2].core_layer 	data[2] 	43008
scalar abilene_network.node[2].content_store 	p_hit[2] 	0.1445383461022
scalar abilene_network.node[2].content_store 	hits[2] 	7320
scalar abilene_network.node[2].content_store 	misses[2] 	43324
scalar abilene_network.node[2].content_store 	decision_yes[2] 	1176
scalar abilene_network.node[2].content_store 	decision_no[2] 	41832
scalar abilene_network.node[2].content_store 	decision_ratio[2] 	0.02734375
scalar abilene_network.node[3].core_layer 	interests[3] 	61209
scalar abilene_network.node[3].core_layer 	data[3] 	53675
scalar abilene_network.node[3].content_store 	p_hit[3] 	0.11865902073225
scalar abilene_network.node[3].content_store 	hits[3] 	7263
scalar abilene_network.node[3].content_store 	misses[3] 	53946
scalar abilene_network.node[3].content_store 	decision_yes[3] 	1315
scalar abilene_network.node[3].content_store 	decision_no[3] 	52360
scalar abilene_network.node[3].content_store 	decision_ratio[3] 	0.024499301350722
scalar abilene_network.node[4].core_layer 	interests[4] 	71807
scalar abilene_network.node[4].core_layer 	data[4] 	64717
scalar abilene_network.node[4].content_store 	p_hit[4] 	0.094029829960867
scalar abilene_network.node[4].content_store 	hits[4] 	6752
scalar abilene_network.node[4].content_store 	misses[4] 	65055
scalar abilene_network.node[4].content_store 	decision_yes[4] 	1583
scalar abilene_network.node[4].content_store 	decision_no[4] 	63134
scalar abilene_network.node[4].content_store 	decision_ratio[4] 	0.024460342722932
scalar abilene_network.node[5].core_layer 	interests[5] 	127023
scalar abilene_network.node[5].core_layer 	repo_load[5] 	122745
scalar abilene_network.node[5].core_layer 	data[5] 	0
scalar abilene_network.node[5].content_store 	p_hit[5] 	0.033678940034482
scalar abilene_network.node[5].content_store 	hits[5] 	4278
scalar abilene_network.node[5].content_store 	misses[5] 	122745
scalar abilene_network.node[5].content_store 	decision_yes[5] 	122745
scalar abilene_network.node[5].content_store 	decision_no[5] 	0
scalar abilene_network.node[5].content_store 	decision_ratio[5] 	1
scalar abilene_network.node[6].core_layer 	interests[6] 	50996
scalar abilene_network.node[6].core_layer 	data[6] 	44505
scalar abilene_network.node[6].content_store 	p_hit[6] 	0.12616675817711
scalar abilene_network.node[6].content_store 	hits[6] 	6434
scalar abilene_network.node[6].content_store 	misses[6] 	44562
scalar abilene_network.node[6].content_store 	decision_yes[6] 	1433
scalar abilene_network.node[6].content_store 	decision_no[6] 	43072
scalar abilene_network.node[6].content_store 	decision_ratio[6] 	0.032198629367487
scalar abilene_network.node[7].core_layer 	interests[7] 	39963
scalar abilene_network.node[7].core_layer 	data[7] 	32985
scalar abilene_network.node[7].content_store 	p_hit[7] 	0.17123339088657
scalar abilene_network.node[7].content_store 	hits[7] 	6843
scalar abilene_network.node[7].content_store 	misses[7] 	33120
scalar abilene_network.node[7].content_store 	decision_yes[7] 	979
scalar abilene_network.node[7].content_store 	decision_no[7] 	32006
scalar abilene_network.node[7].content_store 	decision_ratio[7] 	0.029680157647415
scalar abilene_network.node[8].core_layer 	interests[8] 	29294
scalar abilene_network.node[8].core_layer 	data[8] 	22051
scalar abilene_network.node[8].content_store 	p_hit[8] 	0.24206322113743
scalar abilene_network.node[8].content_store 	hits[8] 	7091
scalar abilene_network.node[8].content_store 	misses[8] 	22203
scalar abilene_network.node[8].content_store 	decision_yes[8] 	702
scalar abilene_network.node[8].content_store 	decision_no[8] 	21349
scalar abilene_network.node[8].content_store 	decision_ratio[8] 	0.031835290916512
scalar abilene_network.node[9].core_layer 	interests[9] 	17949
scalar abilene_network.node[9].core_layer 	data[9] 	11142
scalar abilene_network.node[9].content_store 	p_hit[9] 	0.37456125689453
scalar abilene_network.node[9].content_store 	hits[9] 	6723
scalar abilene_network.node[9].content_store 	misses[9] 	11226
scalar abilene_network.node[9].content_store 	decision_yes[9] 	469
scalar abilene_network.node[9].content_store 	decision_no[9] 	10673
scalar abilene_network.node[9].content_store 	decision_ratio[9] 	0.042092981511398
scalar abilene_network.node[10].core_layer 	interests[10] 	17843
scalar abilene_network.node[10].core_layer 	data[10] 	11165
scalar abilene_network.node[10].content_store 	p_hit[10] 	0.36961273328476
scalar abilene_network.node[10].content_store 	hits[10] 	6595
scalar abilene_network.node[10].content_store 	misses[10] 	11248
scalar abilene_network.node[10].content_store 	decision_yes[10] 	508
scalar abilene_network.node[10].content_store 	decision_no[10] 	10657
scalar abilene_network.node[10].content_store 	decision_ratio[10] 	0.045499328257949
scalar abilene_network.client[0] 	hdistance[0] 	3.5010064862447
scalar abilene_network.client[0] 	downloads[0] 	17884
scalar abilene_network.client[0] 	avg_time[0] 	0.018502606628
scalar abilene_network.client[1] 	hdistance[1] 	3.0078691818283
scalar abilene_network.client[1] 	downloads[1] 	17918
scalar abilene_network.client[1] 	avg_time[1] 	0.012225639767
scalar abilene_network.client[2] 	hdistance[2] 	2.4738859873319
scalar abilene_network.client[2] 	downloads[2] 	17998
scalar abilene_network.client[2] 	avg_time[2] 	0.008838931888
scalar abilene_network.client[3] 	hdistance[3] 	1.9235854773842
scalar abilene_network.client[3] 	downloads[3] 	18151
scalar abilene_network.client[3] 	avg_time[3] 	0.005999161497
scalar abilene_network.client[4] 	hdistance[4] 	1.3707890070922
scalar abilene_network.client[4] 	downloads[4] 	18048
scalar abilene_network.client[4] 	avg_time[4] 	0.005302372769
scalar abilene_network.client[5] 	hdistance[5] 	0.92910510645469
scalar abilene_network.client[5] 	downloads[5] 	17801
scalar abilene_network.client[5] 	avg_time[5] 	0
scalar abilene_network.client[6] 	hdistance[6] 	1.3620047785742
scalar abilene_network.client[6] 	downloads[6] 	17997
scalar abilene_network.client[6] 	avg_time[6] 	0.001531917339
scalar abilene_network.client[7] 	hdistance[7] 	1.89419528017
scalar abilene_network.client[7] 	downloads[7] 	17882
scalar abilene_network.client[7] 	avg_time[7] 	0.005190846556
scalar abilene_network.client[8] 	hdistance[8] 	2.4141436464088
scalar abilene_network.client[8] 	downloads[8] 	18100
scalar abilene_network.client[8] 	avg_time[8] 	0.009595966829
scalar abilene_network.client[9] 	hdistance[9] 	2.9337811363
scalar abilene_network.client[9] 	downloads[9] 	17865
scalar abilene_network.client[9] 	avg_time[9] 	0.018291978216
scalar abilene_network.client[10] 	hdistance[10] 	3.5125
scalar abilene_network.client[10] 	downloads[10] 	17760
scalar abilene_network.client[10] 	avg_time[10] 	0.017980719436
