version 2
run General-21-20150311-18:59:43-28976
attr D lcd
attr F spr
attr R lru
attr a 1
attr configname General
attr datetime 20150311-18:59:43
attr experiment General
attr inifile omnetpp.ini
attr iterationvars "$net=abilene, $rep=0, $a=1, $F=spr, $ttl=1000, $D=lcd, $R=lru"
attr iterationvars2 "$net=abilene, $rep=0, $a=1, $F=spr, $ttl=1000, $D=lcd, $R=lru, $repetition=0"
attr measurement "$net=abilene, $rep=0, $a=1, $F=spr, $ttl=1000, $D=lcd, $R=lru"
attr net abilene
attr network networks.${net=abilene}_network
attr processid 28976
attr rep 0
attr repetition 0
attr replication #0
attr resultdir results
attr runnumber 21
attr seedset 0
attr ttl 1000

scalar . 	a 	1
scalar . 	rep 	0
scalar . 	ttl 	1000
scalar abilene_network.content_distribution 	repo-0 	5
scalar abilene_network.content_distribution 	client-0 	8
scalar abilene_network.content_distribution 	client-1 	9
scalar abilene_network.content_distribution 	client-2 	5
scalar abilene_network.content_distribution 	client-3 	0
scalar abilene_network.content_distribution 	client-4 	1
scalar abilene_network.content_distribution 	client-5 	7
scalar abilene_network.content_distribution 	client-6 	6
scalar abilene_network.content_distribution 	client-7 	2
scalar abilene_network.content_distribution 	client-8 	4
scalar abilene_network.content_distribution 	client-9 	10
scalar abilene_network.content_distribution 	client-10 	3
scalar abilene_network.content_distribution 	repo-0_card 	10000
scalar abilene_network.content_distribution 	repo-0_price 	0
scalar abilene_network.statistics 	stabilization_time 	3119.1
scalar abilene_network.statistics 	p_hit 	0.22643591894398
scalar abilene_network.statistics 	interests 	4118.3636363636
scalar abilene_network.statistics 	data 	2313.7272727273
scalar abilene_network.statistics 	hdistance 	1.765256485964
scalar abilene_network.statistics 	avg_time 	0.007238436135
scalar abilene_network.statistics 	downloads 	19849
scalar abilene_network.statistics 	total_cost 	0
scalar abilene_network.statistics 	total_replicas 	10000
scalar abilene_network.statistics 	inner_hit 	0.51680185399768
scalar abilene_network.node[0].core_layer 	interests[0] 	1821
scalar abilene_network.node[0].core_layer 	data[0] 	867
scalar abilene_network.node[0].core_layer 	repo_int[0] 	9591
scalar abilene_network.node[0].content_store 	p_hit[0] 	0.52388797364086
scalar abilene_network.node[0].content_store 	hits[0] 	954
scalar abilene_network.node[0].content_store 	misses[0] 	867
scalar abilene_network.node[0].content_store 	decision_yes[0] 	50
scalar abilene_network.node[0].content_store 	decision_no[0] 	817
scalar abilene_network.node[0].content_store 	decision_ratio[0] 	0.057670126874279
scalar abilene_network.node[1].core_layer 	interests[1] 	3561
scalar abilene_network.node[1].core_layer 	data[1] 	2481
scalar abilene_network.node[1].content_store 	p_hit[1] 	0.3030047739399
scalar abilene_network.node[1].content_store 	hits[1] 	1079
scalar abilene_network.node[1].content_store 	misses[1] 	2482
scalar abilene_network.node[1].content_store 	decision_yes[1] 	82
scalar abilene_network.node[1].content_store 	decision_no[1] 	2399
scalar abilene_network.node[1].content_store 	decision_ratio[1] 	0.033051189036679
scalar abilene_network.node[2].core_layer 	interests[2] 	4319
scalar abilene_network.node[2].core_layer 	data[2] 	3324
scalar abilene_network.node[2].content_store 	p_hit[2] 	0.23037740217643
scalar abilene_network.node[2].content_store 	hits[2] 	995
scalar abilene_network.node[2].content_store 	misses[2] 	3324
scalar abilene_network.node[2].content_store 	decision_yes[2] 	104
scalar abilene_network.node[2].content_store 	decision_no[2] 	3220
scalar abilene_network.node[2].content_store 	decision_ratio[2] 	0.031287605294826
scalar abilene_network.node[3].core_layer 	interests[3] 	5157
scalar abilene_network.node[3].core_layer 	data[3] 	4196
scalar abilene_network.node[3].content_store 	p_hit[3] 	0.18634865231724
scalar abilene_network.node[3].content_store 	hits[3] 	961
scalar abilene_network.node[3].content_store 	misses[3] 	4196
scalar abilene_network.node[3].content_store 	decision_yes[3] 	133
scalar abilene_network.node[3].content_store 	decision_no[3] 	4063
scalar abilene_network.node[3].content_store 	decision_ratio[3] 	0.031696854146806
scalar abilene_network.node[4].core_layer 	interests[4] 	6007
scalar abilene_network.node[4].core_layer 	data[4] 	5062
scalar abilene_network.node[4].content_store 	p_hit[4] 	0.15731646412519
scalar abilene_network.node[4].content_store 	hits[4] 	945
scalar abilene_network.node[4].content_store 	misses[4] 	5062
scalar abilene_network.node[4].content_store 	decision_yes[4] 	198
scalar abilene_network.node[4].content_store 	decision_no[4] 	4864
scalar abilene_network.node[4].content_store 	decision_ratio[4] 	0.039114974318451
scalar abilene_network.node[5].core_layer 	interests[5] 	10287
scalar abilene_network.node[5].core_layer 	repo_load[5] 	9591
scalar abilene_network.node[5].core_layer 	data[5] 	0
scalar abilene_network.node[5].content_store 	p_hit[5] 	0.067658209390493
scalar abilene_network.node[5].content_store 	hits[5] 	696
scalar abilene_network.node[5].content_store 	misses[5] 	9591
scalar abilene_network.node[5].content_store 	decision_yes[5] 	9591
scalar abilene_network.node[5].content_store 	decision_no[5] 	0
scalar abilene_network.node[5].content_store 	decision_ratio[5] 	1
scalar abilene_network.node[6].core_layer 	interests[6] 	4400
scalar abilene_network.node[6].core_layer 	data[6] 	3473
scalar abilene_network.node[6].content_store 	p_hit[6] 	0.21045454545455
scalar abilene_network.node[6].content_store 	hits[6] 	926
scalar abilene_network.node[6].content_store 	misses[6] 	3474
scalar abilene_network.node[6].content_store 	decision_yes[6] 	147
scalar abilene_network.node[6].content_store 	decision_no[6] 	3326
scalar abilene_network.node[6].content_store 	decision_ratio[6] 	0.042326518859775
scalar abilene_network.node[7].core_layer 	interests[7] 	3537
scalar abilene_network.node[7].core_layer 	data[7] 	2588
scalar abilene_network.node[7].content_store 	p_hit[7] 	0.26830647441334
scalar abilene_network.node[7].content_store 	hits[7] 	949
scalar abilene_network.node[7].content_store 	misses[7] 	2588
scalar abilene_network.node[7].content_store 	decision_yes[7] 	103
scalar abilene_network.node[7].content_store 	decision_no[7] 	2485
scalar abilene_network.node[7].content_store 	decision_ratio[7] 	0.039799072642968
scalar abilene_network.node[8].core_layer 	interests[8] 	2654
scalar abilene_network.node[8].core_layer 	data[8] 	1737
scalar abilene_network.node[8].content_store 	p_hit[8] 	0.34551620195931
scalar abilene_network.node[8].content_store 	hits[8] 	917
scalar abilene_network.node[8].content_store 	misses[8] 	1737
scalar abilene_network.node[8].content_store 	decision_yes[8] 	68
scalar abilene_network.node[8].content_store 	decision_no[8] 	1669
scalar abilene_network.node[8].content_store 	decision_ratio[8] 	0.039147956246402
scalar abilene_network.node[9].core_layer 	interests[9] 	1843
scalar abilene_network.node[9].core_layer 	data[9] 	883
scalar abilene_network.node[9].content_store 	p_hit[9] 	0.52088985349973
scalar abilene_network.node[9].content_store 	hits[9] 	960
scalar abilene_network.node[9].content_store 	misses[9] 	883
scalar abilene_network.node[9].content_store 	decision_yes[9] 	43
scalar abilene_network.node[9].content_store 	decision_no[9] 	840
scalar abilene_network.node[9].content_store 	decision_ratio[9] 	0.048697621744054
scalar abilene_network.node[10].core_layer 	interests[10] 	1716
scalar abilene_network.node[10].core_layer 	data[10] 	840
scalar abilene_network.node[10].content_store 	p_hit[10] 	0.51048951048951
scalar abilene_network.node[10].content_store 	hits[10] 	876
scalar abilene_network.node[10].content_store 	misses[10] 	840
scalar abilene_network.node[10].content_store 	decision_yes[10] 	47
scalar abilene_network.node[10].content_store 	decision_no[10] 	793
scalar abilene_network.node[10].content_store 	decision_ratio[10] 	0.055952380952381
scalar abilene_network.client[0] 	hdistance[0] 	2.6414058209775
scalar abilene_network.client[0] 	downloads[0] 	1821
scalar abilene_network.client[0] 	avg_time[0] 	0.014052486159
scalar abilene_network.client[1] 	hdistance[1] 	2.180690399137
scalar abilene_network.client[1] 	downloads[1] 	1854
scalar abilene_network.client[1] 	avg_time[1] 	0.008981164581
scalar abilene_network.client[2] 	hdistance[2] 	1.8792165397171
scalar abilene_network.client[2] 	downloads[2] 	1838
scalar abilene_network.client[2] 	avg_time[2] 	0.006792306397
scalar abilene_network.client[3] 	hdistance[3] 	1.5150027277687
scalar abilene_network.client[3] 	downloads[3] 	1833
scalar abilene_network.client[3] 	avg_time[3] 	0.004780054108
scalar abilene_network.client[4] 	hdistance[4] 	1.0756488128106
scalar abilene_network.client[4] 	downloads[4] 	1811
scalar abilene_network.client[4] 	avg_time[4] 	0.004214444615
scalar abilene_network.client[5] 	hdistance[5] 	0.79954311821816
scalar abilene_network.client[5] 	downloads[5] 	1751
scalar abilene_network.client[5] 	avg_time[5] 	0
scalar abilene_network.client[6] 	hdistance[6] 	1.06129210381
scalar abilene_network.client[6] 	downloads[6] 	1811
scalar abilene_network.client[6] 	avg_time[6] 	0.001200220419
scalar abilene_network.client[7] 	hdistance[7] 	1.4555555555556
scalar abilene_network.client[7] 	downloads[7] 	1800
scalar abilene_network.client[7] 	avg_time[7] 	0.004032321777
scalar abilene_network.client[8] 	hdistance[8] 	1.901185770751
scalar abilene_network.client[8] 	downloads[8] 	1771
scalar abilene_network.client[8] 	avg_time[8] 	0.007635098367
scalar abilene_network.client[9] 	hdistance[9] 	2.223548562127
scalar abilene_network.client[9] 	downloads[9] 	1843
scalar abilene_network.client[9] 	avg_time[9] 	0.014022766772
scalar abilene_network.client[10] 	hdistance[10] 	2.6847319347319
scalar abilene_network.client[10] 	downloads[10] 	1716
scalar abilene_network.client[10] 	avg_time[10] 	0.013911934297
